     568
 i =      164, E =     -3254.0001195015
  I        12.5338046348       12.2591495913        8.7550993005
  I        18.6936759570       12.7162927020        8.8078161899
  I        12.0797481802       18.4732403210        8.9258314914
  I        19.1584991848       18.0956429800        8.7213456280
  I        11.9746403000        9.1476120726       12.2245665205
  I        19.2706876413        9.2402533087       11.9438156617
  I         9.2210877784       12.6106853603       11.9444744871
  I        12.2969875899       12.4177889497       15.1172887499
  I        12.5779563075       15.4167342884       12.1179221984
  I        15.4664951535       11.8486604872       11.9753609775
  I        18.5638174999       12.1953788959       15.1435226369
  I        18.1390140268       15.4954936495       12.2555556285
  I        22.0189272825       12.9539223613       11.8423161120
  I         9.0739744533       18.5179599639       12.2138853507
  I        12.3706303947       18.3993943085       15.1651487384
  I        12.0730734440       21.9908963060       12.0595131298
  I        15.4754637778       18.7441609089       11.8359695544
  I        18.8868186359       18.7045911824       15.0822498193
  I        19.2166309099       22.1703674737       11.8285587965
  I        21.6958291908       18.2566204699       11.2063251650
  I        12.4118472193        8.9770599560       18.1431390493
  I        17.7426516011        8.8947300822       18.2210059387
  I         9.2957146818       12.3914609484       18.1997544495
  I        12.4294093553       12.0883315801       21.4123017804
  I        12.8523633712       15.2153408432       18.3878828061
  I        15.6577791789       11.9332426841       18.2134346547
  I        19.1429323840       12.3961412684       21.5741986880
  I        18.6113170719       15.4020773177       18.3823576018
  I        22.3842565861       12.7703147597       18.1219390744
  I         9.4095218789       18.4136100536       18.2603196298
  I        12.5319952061       18.5523339022       21.2327703914
  I        11.9268379286       22.5676836838       18.0122485216
  I        15.5782552671       18.6825683573       18.0679418984
  I        18.8646521063       18.1866716353       21.6058904058
  I        18.2832643358       22.1110401654       18.6435479580
  I        21.9659302275       18.8138336801       18.3263230201
 Pb        12.3258172769       12.1577920631       11.7758372897
 Pb        19.0384093724       12.4353215925       11.8452720416
 Pb        12.1043404001       18.7639234298       11.9309012219
 Pb        18.6103141904       19.0153593793       11.9304197218
 Pb        12.4490478614       12.0701159981       18.3253216281
 Pb        19.3449537865       12.4151344250       18.4882754192
 Pb        12.3608177765       19.3368700337       18.2711940496
 Pb        18.8873354621       18.9380654946       18.6581171340
  C        15.0211928794       15.4522488820        8.5500732837
  C        15.0641977114        8.6415721857       14.5611720591
  C         8.9495052395       15.2265952327       15.0070099336
  C        15.2201912375       15.2280424162       14.9587421232
  C        21.4654512697       15.3465297345       14.9564519038
  C        15.2075792921       21.2626934796       14.9892972087
  C        15.4967458922       15.2279735265       21.2386737108
  N        16.4536533143       15.4430112852        9.1817675886
  N        16.5947702153        8.5716194747       14.9275063051
  N        10.3902198027       15.3427707943       15.6219600762
  N        16.6831155892       15.2240974972       15.5108022976
  N        22.9566974893       15.4639275426       15.3925836824
  N        16.6852569995       21.2702490377       15.5088501307
  N        16.7727300952       15.2853778079       22.1531540321
  H        15.1396417700       15.4052212452        7.4942868545
  H        14.5314160338       16.3524402592        8.8390898671
  H        14.4951562139       14.6058358874        8.9190167254
  H        17.0245847767       16.2486146850        8.8499404807
  H        16.9726364728       14.5597183492        8.9406619274
  H        16.4171495329       15.5003376655       10.2236307205
  H        14.9972765890        8.6319207452       13.4986790630
  H        14.6539533766        9.5383212021       14.9603400765
  H        14.5879790770        7.7858033617       14.9771384859
  H        17.0687341795        9.4343949766       14.5919856315
  H        17.0184097365        7.7317410772       14.4594047006
  H        16.7227538606        8.5124223257       15.9686090723
  H         9.0254123107       15.2571902965       13.9468420128
  H         8.3423385846       16.0332213273       15.3502059007
  H         8.5247168854       14.3048975865       15.3141317672
  H        10.8557290875       16.2270815057       15.3005499144
  H        10.9639863621       14.5074037791       15.3405964883
  H        10.3217520989       15.3699143852       16.6578384040
  H        15.2777282725       15.1589493062       13.8993937663
  H        14.7504597912       16.1347114031       15.2556984434
  H        14.7169645013       14.3856336008       15.3644707230
  H        17.2524970240       15.9564615202       15.0400267576
  H        17.1475475289       14.3005099699       15.3222339451
  H        16.7223081991       15.3885468019       16.5389118998
  H        21.4565297306       15.1760962332       13.9090700297
  H        20.9941176466       16.2762526866       15.1653433973
  H        20.9861855721       14.5539542214       15.4642721755
  H        23.5220292739       16.1969665422       14.7276210204
  H        23.3952137973       14.5220550091       15.3509221339
  H        23.0117671885       15.7718940180       16.3598752602
  H        15.2341931414       21.1025547610       13.9382847414
  H        14.7489226894       22.1874785428       15.2393592223
  H        14.7110977123       20.4514465244       15.4667263561
  H        17.2537082506       21.9818321243       15.0214267917
  H        17.1639518137       20.3374885608       15.3426368878
  H        16.7515640892       21.4524463266       16.5409368862
  H        15.8372116007       15.0774476415       20.2363668731
  H        14.9683015394       16.1447767831       21.3412713540
  H        14.9048979183       14.4025200111       21.5535967210
  H        17.4180571285       16.0360569908       21.8150392516
  H        17.2855368980       14.3758264132       22.1441050419
  H        16.4863209769       15.5619130139       23.1362043643
  H         6.1976028816       11.9045470464       10.4670099114
  O         6.5217380391       10.9433394826       10.3217009955
  H         7.1749086311       10.9879852479        9.4964757060
  H         6.0509516966       10.6934673627       13.6008139245
  O         6.8805617366       10.2502568822       13.7644526912
  H         7.4546362141       10.9399518749       13.1181461092
  H         6.1715755791       12.4281378936       16.9360043500
  O         6.4449515394       11.3266120041       16.6683633604
  H         7.1736379598       11.3526669433       16.0636231859
  H         5.7183392493       10.7988379690       19.7928232558
  O         6.5684882598       10.4091180994       20.1384074641
  H         7.2644860043       11.1039933937       19.9059614038
  H         6.2617887516       14.9048190827       10.4054363102
  O         6.5039138777       13.8521088378       10.4656782050
  H         7.3358726666       13.7436683614        9.7964024249
  H         5.7143043614       14.8894756067       13.3894421054
  O         5.7291002197       13.8356392674       13.2114044601
  H         6.1242287760       13.7299506843       12.1568175048
  H         5.6878036263       14.4627201464       16.8186733364
  O         5.9516874750       13.6403908223       17.3621162076
  H         6.1219343544       13.8996215257       18.4326084915
  H         6.4338327060       15.2107820068       20.0639647498
  O         6.4861883564       14.1568678211       19.6786740450
  H         7.2835604633       13.9308237736       20.0504429046
  H         5.9278826984       17.1730988722       10.3524989119
  O         6.3935481008       16.2774186774       10.0940808265
  H         7.1676492932       16.5674342277        9.6081566664
  H         5.6549046896       17.5391901258       13.7469462319
  O         6.0513478069       16.6314619726       13.3291097831
  H         6.8588787744       16.9616395829       12.9132867552
  H         5.7607012261       17.7025572421       16.8058219003
  O         6.1272652658       16.7562879437       17.0547292238
  H         7.0274877610       16.9488423343       17.6096995948
  H         6.3297511642       17.4906373583       20.2479645083
  O         6.6156382764       16.5775921218       20.5494060539
  H         7.4913902753       16.6226306091       21.1844561575
  H         5.2858761888       19.5968625388       10.8712781427
  O         5.8661863937       18.9834044128       10.3377436376
  H         6.8308489724       19.3547529125       10.2798339975
  H         5.4247041453       20.7935680097       13.7847951797
  O         6.0924369008       20.0643658971       13.5811944182
  H         6.9448909435       20.5664833090       13.4793846315
  H         5.4220703872       20.6919212865       16.8110621739
  O         6.1495965067       20.1963319112       17.3456079606
  H         6.9549565112       20.7293921410       17.1135827966
  H         6.0557581213       19.4658191500       18.8667838185
  O         6.3293538625       19.0537246110       19.7701151707
  H         7.2135460046       19.4730751601       20.0186574973
  H         6.5940409935        8.9685019648        7.8747763423
  O         6.9720164437        8.0420428925        7.9110897487
  H         7.7225631064        8.0014490268        8.7466861804
  H         8.3336993728        8.8037762350       10.6139386795
  O         8.7453596015        8.1068328013       10.0221073691
  H         9.6390389395        8.4675791402        9.5151329807
  H         7.5015718276        8.8550441430       13.7471381041
  O         8.3822084733        8.2613292064       13.8721986664
  H         9.2328641774        8.7666451168       14.1287505656
  H         8.2366698481        8.4471736238       16.8182643120
  O         9.1304181619        8.2724391900       16.6436333710
  H         9.6624099982        8.7058811416       17.3991759760
  H         7.8128205682        8.8893937748       19.6981077678
  O         8.7233785465        8.4419972825       19.5364012129
  H         9.3970529755        8.8904520025       19.9482162802
  H         7.0970395522        8.7813143298       22.2852184825
  O         8.0660208541        9.0237854424       22.6034543857
  H         8.2378711346       10.0530894235       22.4319809428
  H         8.0194362775       12.3739851266        8.0390913729
  O         8.0694749546       11.3076363575        8.1039792979
  H         8.9446900644       11.1022925480        7.7341644507
  H         8.6651405653       12.3948105839       22.1994112975
  O         8.8868605844       11.3837680738       22.0795015757
  H         9.8778958083       11.3467715135       21.8665859509
  H         8.2492276894       15.1533152095        8.2462018289
  O         8.4413078493       14.1594833283        8.2885501808
  H         9.4978783213       13.9920962305        8.6402648516
  H         8.8848609810       15.0929500208       22.2045751847
  O         9.0867155244       14.0516320731       22.1594483123
  H         9.9763610378       14.0452749767       21.7880933881
  H         8.3650619464       17.9128163913        8.3442547005
  O         8.4216271047       16.8298444379        8.7095737215
  H         9.2839632695       16.8351079870        9.2432683550
  H         8.9176930208       17.8166650831       22.3296764984
  O         9.1322464426       16.7827085203       21.8976888472
  H         9.8153019480       17.0041138754       21.5660397923
  H         7.8858155210       20.2132429797        8.0957214265
  O         8.4654686312       19.3506091082        8.2027503970
  H         9.4716423926       19.5851292712        8.3927519710
  H         8.2768805568       20.1074612821       22.6020775306
  O         8.9933576395       19.3226017487       22.5947223557
  H         9.7891472179       19.6722197369       22.0181805149
  H         6.6680288257       22.2294335621        7.8288807914
  O         7.4509891763       21.6818881358        8.2147209205
  H         7.9292754030       22.0427335103        9.0680311630
  H         8.2357515128       22.4139949866       11.3440775394
  O         8.6569988135       22.4082360017       10.3271417275
  H         9.6970828270       22.1993343784       10.4280322790
  H         8.0020679156       23.2617695683       13.2134151072
  O         8.2345575089       22.3532375831       13.1084645682
  H         9.2442823414       22.1759159449       13.2628125225
  H         8.0976705848       23.2913200136       16.6750941418
  O         8.2604634360       22.2612089638       17.1401170265
  H         9.3443880485       22.1419218721       17.0225177841
  H         8.2878503740       22.4877460128       19.2663905309
  O         8.7570681402       22.2031853439       20.0104180361
  H         9.7214225986       22.3198955498       19.8725256712
  H         6.7670331603       21.9809445432       22.4966037470
  O         7.6358712197       21.4788848265       22.2492683346
  H         8.1888437731       21.7718666719       21.4203786738
  H         9.3573078353        6.7772362025       10.7912759698
  O        10.0538922830        6.1239837540       11.2354052921
  H        11.0262040086        6.3986357624       10.9065183236
  H         8.6555329101        6.8636942793       13.8031506536
  O         9.1244378187        5.8371493007       13.6604194670
  H         9.8593573902        5.9139681874       12.9192483504
  H         9.6284349713        6.9677421060       16.2038813988
  O         9.9699059441        5.9642437115       15.9185406307
  H        10.9535908961        5.9637871858       15.7205964453
  H         9.7378339027        6.6337926698       19.6827138106
  O        10.5529928394        6.2910941790       20.1792223720
  H        10.6204570258        7.0235495002       20.9471746902
  H        10.5447843462        9.4961029105        7.8002669711
  O        10.7272477553        8.7786587923        8.6020134161
  H        11.7804417590        8.6819985207        8.6344762913
  H         9.2499859001        8.2874096050       22.3179558281
  O        10.4520470133        8.1924407163       21.9681353232
  H        11.1079176012        8.5289328634       22.5639711587
  H         9.7446834834       11.0674441093        5.6453549539
  O        10.3934190238       10.7979946182        6.2216205029
  H        11.2723602873       11.1028786409        5.9951258493
  H        10.5659339558       11.0822191446       24.8797549062
  O        11.4571998222       11.5579729760       24.8108385140
  H        11.3163520753       12.5367422062       24.8442891612
  H        10.9379138997       14.0158829497        5.8908422914
  O        11.8215780923       14.1190151736        5.5114258970
  H        12.0285230711       15.1827176132        5.5010266014
  H         9.7721267164       13.9338514816       24.2159857368
  O        10.6287280244       13.9457237959       24.7894287499
  H        10.9112669384       14.9470912899       24.8545439995
  H        11.4349972364       17.3174302098        5.6456734912
  O        12.2092264136       16.6698227951        5.6178697429
  H        13.0451910324       17.2234162386        5.8315274933
  H        10.1572037202       16.7517593516       23.8580380128
  O        10.8123392712       16.5290163790       24.4314563145
  H        11.1902610048       17.4272903903       24.8189667412
  H         9.7816017121       19.5140889508        5.7997277698
  O        10.7807146722       19.5192580891        5.8551110844
  H        10.9433051049       20.3781370839        6.5557877187
  H        10.2926858738       19.3378007754       24.0184389265
  O        11.1803949384       19.5107628169       24.3449047359
  H        11.4289310635       20.3865902322       23.9859232498
  H        10.2467465457       22.4831534644        7.9047932656
  O        10.8977348135       21.7286603331        7.7753036013
  H        11.8346083749       22.0687683899        8.0154651561
  H        10.7704544505       22.5022956570       22.7067008415
  O        11.3821959953       21.7202965049       22.7443456239
  H        12.3287915369       21.9646422681       22.3246713714
  H        10.1996678498       25.0170697695       10.5568291632
  O        10.8608822466       24.7926476726        9.8676695579
  H        11.7374068670       24.8501854300       10.2482970318
  H         8.7423068924       25.9020153606       13.2565686533
  O         9.1898786318       25.0322914638       13.2081083604
  H         9.9667937145       25.0052207171       13.7220364423
  H         9.1738533860       26.0660833374       16.7862324246
  O         9.5910123744       25.2783779759       16.3473235597
  H        10.4811883381       25.0357607544       16.8480799760
  H         9.5520124560       25.8497979408       20.6643545145
  O         9.9887034726       24.9693444541       20.3634288605
  H        10.8349012004       25.2085250180       19.9552774609
  H        13.2860105953        6.2936140008        9.6260365832
  O        13.8395040437        6.0832971143       10.4061747272
  H        14.5293468440        6.9086236072       10.5832628281
  H        13.6224104122        5.6471889926       11.8001327386
  O        13.7382750430        5.4976129992       12.8175342112
  H        14.7412011777        5.5757626818       13.0732895952
  H        12.6924892647        5.6252870897       17.8983251372
  O        13.6270990494        5.6213241201       17.4697773822
  H        14.2212564919        6.0087618035       18.2317280538
  H        13.2217652653        6.3915613641       20.3095255937
  O        14.1581674137        6.5580907406       20.0179791809
  H        14.4120878191        7.3950001809       20.6488103808
  H        13.0725435330        8.1956936209        6.9082163225
  O        13.4590253588        8.1715072922        7.8530720863
  H        14.2935179263        8.7584197158        7.6780399201
  H        14.7864792584        8.8315404755       11.1785296326
  O        15.3271673328        8.0139008598       10.8946518808
  H        16.0797617144        8.3233765658       10.2753334452
  H        13.3135576130        9.1364629011       21.4322425344
  O        14.0312444825        8.5720409541       21.7745146977
  H        14.3523229579        9.1810503038       22.5043200765
  H        12.4244199436       12.7954608021        5.2401928936
  O        12.6837633781       11.7618892791        5.1730532370
  H        13.6473290741       11.7072681600        5.0871835193
  H        15.0986942969       10.8185941107        8.1711677705
  O        15.6685956250       10.1526006144        7.7120028673
  H        16.1952088124       10.6748225937        6.9012427072
  H        12.7163958089       10.8527861778       24.3656715869
  O        13.6677916424       10.4281783591       23.9981074235
  H        14.4561149485       10.9555725934       24.3347854582
  H        14.8755699593       14.0774395489       25.2021151243
  O        15.7906517697       14.1341035899       25.1004301207
  H        15.9467696393       15.2156493226       25.0718335753
  H        15.2220422174       17.3355158495       24.6420157196
  O        16.0914600117       16.7748015478       24.6603260228
  H        16.8545978971       17.4391442180       24.8350226552
  H        13.5569395670       19.0963141552        5.5162504127
  O        14.1542249111       18.3919844457        5.8858141499
  H        14.7474458092       18.8503805735        6.6658272070
  H        14.6387616339       20.3701800280        7.9679466899
  O        15.4409950471       19.8425384512        7.5146499527
  H        16.2080845155       20.4551950030        8.0344068657
  H        13.0825174317       18.8115679682       24.5081260017
  O        14.0218518960       18.5870701447       24.6889558923
  H        14.4019917924       19.5402491416       24.2832574111
  H        13.7416253455       23.5437316732        7.2734345291
  O        14.1837115700       22.6659935972        7.4062555953
  H        15.0722845156       22.9374685791        7.6419921793
  H        14.2726205696       22.4162965884       10.9079522463
  O        15.3408430131       22.5126486543       10.5872266633
  H        15.9445632715       22.9556335396       11.2437734153
  H        13.8390217802       23.5065750638       21.2267707642
  O        13.7912515759       22.5590242276       21.7512904298
  H        14.4512711175       21.9831666466       21.2366506181
  H        13.5324028103       26.1412339038        9.9250875646
  O        13.7818332506       25.4179446021       10.4674712540
  H        14.7607786897       25.0730484146       10.2596892851
  H        13.9773867176       25.0279612317       12.7240357699
  O        14.7208696958       25.2186096120       13.4041102168
  H        14.7636731236       26.2353026466       13.5766171137
  H        14.3526333642       25.7735831242       16.7435176929
  O        15.2013141298       26.0475803783       17.0712681717
  H        15.3912834429       26.9351249804       17.0612361222
  H        13.4031477628       25.8635595588       20.4510315881
  O        14.1159453427       25.1622620121       20.4333204598
  H        14.7619929216       25.3965274484       19.5999616328
  H        17.4095735091        6.7671239564        9.7915402120
  O        17.8918222049        6.0388435587       10.1543535791
  H        18.7604713324        6.3580156974       10.2009115286
  H        17.3730407458        6.0342991465       11.9473092782
  O        17.4329759615        5.9715732663       12.8866925007
  H        18.3355360535        5.5008828166       13.1446752693
  H        17.9272856928        5.8264456499       18.6953829510
  O        18.1467577649        5.8752310746       17.5748539792
  H        19.1585894274        5.9612895064       17.4851826416
  H        17.7916783179        6.3760027035       20.8224972806
  O        18.1006684701        5.6955145189       20.0214985612
  H        19.0555137659        5.5922766042       20.2065369244
  H        16.4681277129        9.2708337661        8.4564959925
  O        17.0409941523        8.6189668775        9.2565084040
  H        17.8289759231        9.1478064487        9.4239212476
  H        17.0825467110        7.9667873464       22.2945921607
  O        17.8494373681        7.3585710092       22.0063805488
  H        18.7219828657        7.8420991643       22.1709398576
  H        16.8358694327       12.5171416934        5.6819258138
  O        16.9266321873       11.4307484937        5.9890882494
  H        17.8767270719       11.2754647927        5.8841578296
  H        16.7170625139       12.7330876208       25.0121775075
  O        17.0413461461       11.7474158743       24.9154893552
  H        17.9870224105       11.7721892462       24.9649551605
  H        16.4779111457       14.9013508707        5.3239804724
  O        16.9620246371       13.9711615690        5.3105009038
  H        17.9756663168       14.1340913993        5.1182489297
  H        15.2708373065       16.9000346137        5.3605875543
  O        16.1445835162       16.4101473698        5.4714262072
  H        16.8629836276       17.1487815889        5.4817064438
  H        17.0589861082       19.3648189698        5.9902398291
  O        17.6751995425       18.6721321335        5.5805975639
  H        18.6206942651       18.9420748395        5.7862179593
  H        17.4816447539       19.5928473154       24.8593975911
  O        18.0301510992       18.7604361868       25.0001825850
  H        18.9647553097       19.1162942729       24.8832512896
  H        16.1567363695       22.0132377695        9.3850891679
  O        16.9241113084       21.8116973351        8.6744364119
  H        17.7743197067       22.0545792515        9.1078080888
  H        17.3718212861       22.8675944016       22.4371037570
  O        18.4486867326       22.9270426572       22.4171453389
  H        18.6898993367       23.8129420863       21.7916715173
  H        16.8453189708       26.3354890152       10.3952968796
  O        16.9218720640       25.2265314652       10.6004611537
  H        17.4147301402       25.1301066006       11.5370870669
  H        16.4919497817       25.0382784303       13.3464350576
  O        17.4513991401       25.2661366599       13.1949540214
  H        17.8849323506       25.2160168987       14.2384795683
  H        16.7692191215       25.3319455719       16.4997696583
  O        17.7859974807       25.1723151309       16.0730043599
  H        18.4247404762       25.6589483672       16.7424596176
  H        17.5796651589       25.1616429700       20.2433998458
  O        18.5726587589       25.2914063880       20.8577939621
  H        18.7369467599       26.1863115129       21.0462743225
  H        21.0861610348        7.3333421199        9.7905910947
  O        21.1893628719        6.6810683736       10.8415460303
  H        22.0211530849        7.1121882377       11.0833343849
  H        20.9224409880        6.0810503473       13.8967393987
  O        21.7597366439        5.7515715943       13.9955966316
  H        22.5195392899        6.8967083359       14.1170643544
  H        21.0189005933        6.9903194933       16.1903631143
  O        21.3501616764        5.9419271500       16.2425225962
  H        22.3540782705        5.9166963135       16.4165296075
  H        20.6897003721        7.1917468495       20.8561834192
  O        20.9184554899        6.3844304443       20.1347536114
  H        21.7553996018        6.7253752625       19.8087933059
  H        20.6331638722        8.8245430393        8.5025624121
  O        21.2319878597        8.0769750823        8.5778852871
  H        22.3366508218        8.2114907396        8.4031321869
  H        19.8098004379        8.6288030248       16.7143668108
  O        20.6172321297        8.3271563025       16.0326389939
  H        21.0646253622        9.1237914306       15.6245254958
  H        19.7428263514        9.5780532912       21.4519572412
  O        20.3613461842        8.8207238455       21.6766054471
  H        21.2308065992        9.2571892431       22.0267691041
  H        20.9116362834       12.4399517083        5.7428398259
  O        21.0912970201       11.3944802456        5.6402974288
  H        21.8234734975       11.1660257997        5.0464132954
  H        20.6342628273       12.7247998954       24.7879115607
  O        20.6282180741       11.6343448740       24.9698042261
  H        21.5655030605       11.4409526429       25.2492012267
  H        20.8368347067       14.7992940350        5.6493032979
  O        21.0660545813       13.8635708445        5.8523693737
  H        21.7736726332       13.9638619491        6.7619635427
  H        20.4084186081       15.0818015124       24.7534640461
  O        20.8231455965       14.1789613090       24.4803051252
  H        21.6760082445       14.3024385703       23.8236018465
  H        20.2866813682       17.2586444109        5.4489362646
  O        21.0294223964       16.5704814218        5.4740736393
  H        22.0390156353       16.9625288696        5.4303188840
  H        18.9662665205       16.9369879874       25.4517870031
  O        19.8856366623       16.6400275206       25.1240346989
  H        20.3368176708       17.4371987578       24.6754534502
  H        20.6764358954       20.4463146414        5.5145875757
  O        20.7901449157       19.3523321118        5.6367813260
  H        21.7486330346       19.2999221155        6.5000143406
  H        20.4551576289       20.2807157042       23.7418298635
  O        20.5057156479       19.5481036374       24.4782506581
  H        21.4396338783       19.4885242296       24.8439534757
  H        19.8631174823       21.6066063739        8.1901476748
  O        20.8085940860       21.6354139848        8.0810895854
  H        21.1114196297       22.5290565375        8.1392638900
  H        19.3220660923       23.4215568559       15.9916499624
  O        20.2726987396       23.2173363716       15.7899862017
  H        20.8033349218       23.5843905367       16.6638065537
  H        19.5128093756       21.7770775952       22.4618763664
  O        20.5377426936       21.4245949319       22.6874106689
  H        21.2076109268       22.1500291389       22.8039469254
  H        20.8853299870       24.6465560862       10.2664548255
  O        21.9400386539       24.7114593065       10.1578605875
  H        22.1427361124       25.5974115733        9.6377774788
  H        21.1052241892       24.8330521331       13.4320905874
  O        22.0350032262       24.9424994982       13.6982277752
  H        22.5071403540       25.6918145203       13.3826724399
  H        21.1365853753       25.7950422701       16.2870384743
  O        21.5732748375       25.4040061875       17.1262796705
  H        22.6250058204       25.6258543116       17.0546172635
  H        20.3262901081       24.5550391974       20.2266184229
  O        21.3742517121       24.5266612341       20.3423552598
  H        21.6821003766       25.4778469078       20.0657641777
  H        23.1667428225        9.8297539281        7.9272812869
  O        23.4897803079        8.7879431009        8.0248051518
  H        24.3485067692        8.7592019009        8.5061332862
  H        22.1193989620        9.3481394120       10.9401898177
  O        22.9207635197        8.9157750125       11.4273100612
  H        23.7383331385        9.4822718762       11.1419376444
  H        22.8125815427        8.5997701010       13.3942976575
  O        23.0539136426        7.9663006803       14.1926087391
  H        23.4880306560        8.3747433867       15.3216065519
  H        23.1808376528        9.0272269011       17.0145578701
  O        23.8449819915        8.8629350925       16.3206455864
  H        24.5951688642        9.6973983869       16.2529528484
  H        22.0021303540        9.1123924534       19.7685524491
  O        22.7339939354        8.6540670968       19.1903588334
  H        23.6026339289        9.0055069760       19.5596821836
  H        23.6424735437        9.0463131963       22.4216997927
  O        24.3793459703        8.3496125115       22.2412494633
  H        25.1136709186        8.9634126914       22.2351008994
  H        21.8116879829       11.1545516213        7.0094022943
  O        22.4529554971       11.0413904512        7.8537383837
  H        22.7777604179       11.9227269183        8.1730429406
  H        20.9074002500       11.1381442894       14.8131745753
  O        21.6326687582       10.4502489868       14.9019121388
  H        22.4446379406       10.9248825424       14.7754280191
  H        22.1368339567       11.3818033548       22.3769380921
  O        22.6080928721       10.5918662230       21.9339369664
  H        23.4265855395       10.9300897609       21.4452615597
  H        21.7624700361       14.2474773283        8.7175099815
  O        22.5865448929       14.2198052079        8.2000668091
  H        22.9363410868       15.1734130438        8.0562549014
  H        21.6846199810       14.0499976038       21.6649582789
  O        22.6303976647       14.1931705565       22.1301470149
  H        22.8756497227       15.2001495360       22.1003201498
  H        21.9620823053       16.9448507943        8.5901583150
  O        22.9208580635       16.8774532833        8.2484420815
  H        23.1174406528       17.8919330089        7.9220418076
  H        22.0255771612       16.9211123449       21.1180289862
  O        22.8838254846       16.8626082119       21.6396844299
  H        23.0091600244       17.8572921291       22.0543342139
  H        22.0874852989       19.8931813769        8.2871564109
  O        22.8150953058       19.5403151817        7.6880408989
  H        23.5085793785       20.3339941678        7.6209328234
  H        21.6148961491       19.1873875899       14.7062728582
  O        22.5239395249       19.2853073986       14.2702879818
  H        22.6268522560       20.3842689533       14.1388094841
  H        21.9998719618       19.6686463106       22.0739763004
  O        22.9502203546       19.3393980697       22.2591246092
  H        23.5826162300       20.1336786859       22.5116181100
  H        23.6265229145       21.9945022210        8.9018210191
  O        24.1203964570       21.7795329891        8.0302087760
  H        25.0313446111       22.1412011863        8.0267123076
  H        22.1544593577       21.8581549206       10.7074954852
  O        23.0869820962       21.9230676256       10.5323536373
  H        23.2980210107       22.8641014816       10.8987967700
  H        21.4013883721       22.4143881046       15.0046473181
  O        22.3333252676       22.2406996382       14.6665676483
  H        22.5178732167       23.1050075429       14.1156773031
  H        23.3689248708       21.9217610850       15.6073646615
  O        24.2055882989       21.8251474686       16.4061961262
  H        24.5126242021       22.7606565079       16.6904289327
  H        21.9551055294       22.1589702922       20.1478052369
  O        22.9153524789       22.2454659006       20.2645585883
  H        23.0852335533       23.1630100437       19.9457286939
  H        23.6508555679       21.9720812150       21.5972935267
  O        24.0956627616       21.6053015157       22.5177681556
  H        24.8973672060       22.1349801372       22.7615631456
  H        24.6708695456       11.6516308292       10.5678383058
  O        24.9396087411       10.6652355671       10.5406820137
  H        25.8811894986       10.6678473422       10.8855358814
  H        25.6653866445       12.5751341358       13.6465380383
  O        26.1253911187       11.5666663608       13.8273215548
  H        27.0434667510       11.8121658742       13.6687659501
  H        25.0558052385       11.6686843803       16.5719863046
  O        25.3410090518       10.7801034023       15.9997942481
  H        25.7234533120       11.0439204698       15.0143615215
  H        24.3248256413       11.7165028475       19.6554904548
  O        24.7234036666       11.1242269186       20.3350569166
  H        25.6136521245       11.5415682169       20.5614266549
  H        24.3086942512       13.8843251082        9.6598627100
  O        25.0512170095       13.8233558189       10.2007862197
  H        25.2848770288       14.8427105136       10.3766549102
  H        24.8009810413       14.6403457479       13.2540211387
  O        25.0663155657       13.8820109730       13.9458311234
  H        25.4826335123       14.2115507448       14.8744113564
  H        25.4542485659       15.2864896144       16.7247918460
  O        25.7945758711       14.4223233414       16.3838760080
  H        26.7866570979       14.1267754212       16.7945924670
  H        24.4538948627       13.9385605479       20.7116580026
  O        25.2469737672       13.9974741615       20.2267973397
  H        25.3507994229       15.0498334189       20.0709368859
  H        24.3284870647       16.6626811804        9.5188807215
  O        25.1346621991       16.5373013393       10.0640087207
  H        25.2907635242       17.5449271794       10.5109706302
  H        23.3562215491       17.9277020683       13.8381449809
  O        24.0253169651       17.1499274436       13.8538653266
  H        25.0260427740       17.5687538361       13.8458451007
  H        24.5553988274       17.0682301307       17.9677735985
  O        25.1054924970       16.7839952775       17.1164870521
  H        25.4421124543       17.6325584942       16.7299787548
  H        24.1282365322       16.7320013650       20.7006740532
  O        25.0119619119       16.6565994071       20.1090140368
  H        25.4806525647       17.5479897815       20.1159558367
  H        24.3687697038       20.0087721310       10.6649959957
  O        25.2115313400       19.4658866009       10.6615857762
  H        25.7682069103       19.9112728453       11.4476979814
  H        25.9633753258       19.1769803838       14.9614735501
  O        26.1345014282       18.6132843800       14.0267931082
  H        27.0483331794       18.8020051060       13.7274843688
  H        24.9937800974       20.6541163949       16.3323765243
  O        25.7247201494       19.8657036105       16.2342077925
  H        26.4745156812       20.0378277040       16.8960410266
  H        24.2065368558       19.5457465811       20.1711319776
  O        25.2324021084       19.5117952151       19.9701730582
  H        25.5837546027       20.4145581535       19.8646286062
