319
Properties=species:S:1:pos:R:3 i=1824 E=-8306.9589007228 pbc="F F F"
I       11.40632548      12.57109330       8.25487794
I       17.89846902      11.67791172       8.34264790
I       24.30005658      11.63066823       8.54827161
I       12.94915569      17.73192911       8.10792749
I       18.16497030      18.19164642       8.36099760
I       23.51076417      17.56323597       8.48077497
I       12.09434447      24.49946985       8.46734476
I       18.93679405      23.39613171       8.49614836
I       23.83539109      24.76088216       8.84041276
I       11.39050652       7.70122066      12.66386198
I       18.04853226       8.24224555      11.51049613
I       24.19214997       8.11753792      11.58711185
I        8.50309775      12.18082487      11.48011506
I       11.73479781      11.46836605      14.80270359
I       12.09981383      14.70449168      12.03996989
I       14.82272938      11.24814187      11.46319696
I       17.99963803      11.37653612      14.74806498
I       18.40806242      14.55834113      11.71332951
I       21.19829427      11.22806573      11.42956597
I       24.60685880      11.39447669      14.86814523
I       24.32025636      14.48028931      11.93564425
I       27.78153803      11.67998627      11.52850964
I        9.15865733      17.95020791      12.13887944
I       11.87887477      17.77657684      14.86426623
I       12.31348232      21.03364969      11.57356048
I       15.34514698      17.56659346      11.94558192
I       18.37618059      17.70009299      14.78666426
I       17.86457127      20.93378382      11.99490755
I       21.75915476      18.23225778      11.50770625
I       24.50327851      17.79707819      14.70322760
I       25.94484723      20.75618208      11.21009780
I       28.73867809      17.41437441      12.66343931
I        8.84819728      24.13564992      11.22939489
I       11.80207904      23.89952664      14.91254047
I       12.00408747      27.50476454      12.13660530
I       15.57412595      24.74291177      11.58806272
I       18.31843807      24.10921226      14.87916860
I       18.96920883      29.20788020      12.70829217
I       21.87169888      23.00004893      12.29064467
I       25.28189193      24.07221131      14.98718530
I       24.73510927      27.47126251      12.17412609
I       28.07066886      24.40795981      11.27653328
I       11.60054603       7.93366901      17.77418016
I       18.06836996       7.78976755      18.20315596
I       25.20614543       8.17640770      17.73157477
I        8.98301862      12.11397673      17.97375185
I       11.75903815      11.11022623      21.24919709
I       12.34848501      14.63689122      18.13485719
I       15.06335191      11.37907740      17.79921194
I       18.27285487      11.72425393      21.13724648
I       18.38476946      14.53086592      18.02229527
I       21.46434569      11.08372084      17.58298772
I       24.37813530      11.82948551      21.02580442
I       24.93212598      14.50254367      17.81980616
I       28.16595589      11.75378214      18.37741679
I        8.92401502      17.65064119      17.97355745
I       12.08610824      17.76127508      21.23294465
I       11.89052406      21.13237915      18.16025176
I       15.31045766      18.04329088      17.75783740
I       18.43632724      17.73892116      21.20580777
I       18.38542668      21.17126188      18.21251400
I       21.68618242      17.45700624      17.89441244
I       24.61751496      17.68296104      21.15429882
I       24.50024948      20.92882486      18.01710048
I       28.11469705      17.96273805      17.71824164
I        8.59285946      24.10006505      18.15603303
I       12.45148100      23.84611139      21.39026620
I       11.95257488      28.25606135      18.75533989
I       15.19575183      24.59029038      17.77909048
I       18.18519266      24.21182749      21.30809505
I       18.83714057      27.97170447      17.86281684
I       21.83080925      24.34694526      17.78911772
I       25.01753093      23.61889689      21.29768196
I       25.22090204      27.30485306      18.07707524
I       28.79526193      23.81531386      18.60360728
I       12.13068026       7.86422033      22.74750138
I       19.25304317       8.11455668      23.67989668
I       23.90030960       7.83189118      24.93514198
I        9.31133477      12.80835976      24.56852717
I       12.01800160      11.12346949      27.67401605
I       13.41957183      14.37649433      23.90165173
I       15.48475403      10.91242783      24.44754027
I       19.29888784      11.18644659      27.52808219
I       18.38584996      14.60491429      24.50960967
I       21.80572097      11.91886797      23.87808581
I       24.56160485      11.56491448      27.97866355
I       25.11115506      14.41036655      24.74755927
I       27.70328725      11.25772168      23.75971163
I        9.50575380      16.95615388      24.48862359
I       13.43672361      17.00482426      27.40361924
I       11.67609682      20.60489356      24.94421060
I       15.57157968      18.29722529      23.98917502
I       18.87524292      17.96469971      27.85316857
I       18.56132916      20.97851834      24.46963900
I       21.89128348      17.61536619      24.27843059
I       25.20720757      17.62847318      27.68969688
I       25.34026911      20.84067759      24.47750279
I       28.32624056      17.50978660      23.76228123
I        8.67902403      23.82103978      23.67109338
I       11.65574847      23.69272747      27.79933658
I       12.70541579      27.21522577      24.64309550
I       15.33320415      23.66837315      24.86342541
I       19.33006426      23.57817536      27.69359321
I       19.82876071      27.41643240      24.13831090
I       21.77868047      23.45497703      23.80616223
I       24.96577370      23.75423162      27.97136006
I       24.30736935      27.32420667      25.20506417
I       27.83507022      24.62624588      24.50336397
Pb      11.61044776      11.84203689      11.24782219
Pb      18.07155138      11.35420644      11.43356351
Pb      24.76331351      11.43291009      11.58979101
Pb      12.32797247      17.95707957      11.13304952
Pb      18.52163777      17.76410497      11.44200487
Pb      25.92318719      17.68089720      11.28413409
Pb      12.40575930      24.44766816      11.57454736
Pb      18.83586588      23.85137515      11.54862798
Pb      24.96550084      24.31970781      11.69276371
Pb      11.90895068      10.93863257      17.91490445
Pb      18.39701237      11.06168680      18.03348767
Pb      25.19456362      11.37993459      18.12249561
Pb      12.14039221      17.66144005      18.02639854
Pb      18.55946273      17.69105719      18.06627860
Pb      24.96250354      17.79637316      17.86602109
Pb      12.05446869      24.26810474      18.09723791
Pb      18.67076824      24.35980568      18.08789716
Pb      25.61726221      24.09448319      18.27366456
Pb      12.14707855      11.57809446      24.50143683
Pb      18.83289025      11.13275642      24.34221574
Pb      24.84265008      11.37044009      24.89072316
Pb      12.59893139      17.57599588      24.55657263
Pb      18.80134620      17.70479502      24.77990402
Pb      25.26272863      17.70754515      24.46585214
Pb      12.26605815      24.11635448      24.54645229
Pb      18.87206298      24.18594146      24.47401214
Pb      24.81725897      24.16567002      24.92469146
C       14.84947800      14.25731213       8.65377550
C       20.79108057      14.54431040       8.53488599
C       14.82566480      21.28506677       8.33608046
C       21.55987130      20.76175412       8.30710547
C       14.86072738       8.43718153      14.55243639
C       21.04219599       8.25044860      14.31478039
C        8.63129623      14.65621540      14.54390060
C       14.91480790      14.54306307      14.65212967
C       21.08032861      14.44641969      14.64106888
C       27.68076608      14.03938200      14.61068664
C        8.61100889      20.96066480      14.55471268
C       14.91439659      20.77302505      14.66010008
C       20.96005822      20.64089956      15.19690049
C       27.27245655      21.04806269      14.87059410
C       15.04581922      27.15814335      14.64047790
C       21.55373405      26.44672267      14.29040666
C       15.33759692       8.93455740      20.86347658
C       22.24519959       8.54808507      20.52039510
C        8.87539618      14.76424467      20.96300586
C       15.18334380      14.69039705      20.50804692
C       21.28597299      14.66779199      20.94177344
C       27.87088540      14.53125187      21.07965225
C        9.02426937      20.75724064      21.08212414
C       15.17981183      20.86120294      20.93696725
C       21.30039296      20.74820798      20.95423278
C       27.51386421      20.45596743      20.99464041
C       15.19306958      26.64643519      21.41573608
C       21.77207814      26.85375645      20.79481881
C       15.96787231      13.74925180      27.41043416
C       21.58730532      14.56125876      27.10766095
C       15.06852934      20.74634916      27.52323032
C       22.06729236      20.66543518      26.91294621
N       16.16976871      15.06752872       8.56196605
N       22.28172483      14.44277545       8.98557033
N       16.27507028      21.06873370       8.86661312
N       22.82941815      21.16750042       9.09977870
N       16.27568927       8.04365850      15.07652494
N       22.38165262       8.35049871      15.09172544
N       10.05412433      14.55971098      15.19831177
N       16.38693989      14.55054965      15.18570241
N       22.50385242      14.45095963      15.30316237
N       28.41851657      14.63767766      15.84074348
N       10.06869891      20.76342164      15.08149211
N       16.38615314      20.75938001      15.20045103
N       22.51445217      20.76304730      15.07700456
N       28.51655287      20.13357148      15.05778539
N       16.59596738      27.06683651      14.86874179
N       22.80901984      26.53900553      15.20890482
N       16.07645907       7.95276855      21.81185387
N       23.44000032       7.93758697      21.29151284
N       10.27644735      14.54880793      21.62383899
N       16.38789784      14.75217399      21.50894068
N       22.68981848      14.76487195      21.62947660
N       29.35598646      14.66699272      21.51320716
N       10.48148091      20.85973404      21.62618901
N       16.59057424      20.86570582      21.61525504
N       22.71459891      20.65632817      21.62677571
N       28.29944269      20.84223746      22.28969580
N       16.38759701      27.56192423      21.84680749
N       22.90945672      26.35224588      21.73041859
N       17.10586527      14.64989921      27.96238779
N       22.70852176      14.86152809      28.15331223
N       16.47317082      21.16781173      28.05753718
N       23.10861537      20.55368252      28.06504524
H       14.18310422      14.62701717       7.91959413
H       14.42780138      14.37783571       9.61930492
H       15.07649891      13.23754185       8.47590505
H       15.99939339      16.05334065       8.80132030
H       16.59780620      15.03433865       7.48006008
H       16.86120074      14.69266482       9.22593023
H       20.77024044      14.67987560       7.48003511
H       20.36420322      15.38499505       9.02312100
H       20.29266304      13.65041828       8.81709902
H       22.79362422      15.30518047       8.67399577
H       22.76151699      13.59948459       8.59038246
H       22.36425307      14.38617200      10.01972443
H       14.87192879      21.26640776       7.27597088
H       14.48391132      22.22363252       8.69793970
H       14.21822199      20.49410149       8.70134508
H       16.91806998      21.81095006       8.50233872
H       16.66478571      20.13956012       8.56786260
H       16.31787605      21.10260570       9.90705582
H       21.48848553      21.39446508       7.46121786
H       20.71322926      20.87857176       8.93410426
H       21.66267115      19.75008802       8.01191596
H       22.70968594      22.11783775       9.48665279
H       23.76298307      21.18460945       8.45896366
H       22.97457218      20.51875801       9.88832247
H       14.91710639       8.57077109      13.50146078
H       14.56591210       9.34058242      15.02698407
H       14.19347506       7.64885874      14.79671857
H       16.92732087       8.83137751      14.91422903
H       16.69880756       7.13050094      14.60494375
H       16.23988294       7.86025297      16.09348475
H       21.24981865       7.88413318      13.34411207
H       20.59701967       9.21246655      14.24925597
H       20.40209465       7.58072742      14.83346558
H       23.05119902       8.94203417      14.58107386
H       22.86459517       7.28994424      15.25982476
H       22.21695374       8.80206768      16.00326185
H        8.76045403      14.71383865      13.49054711
H        8.15871917      15.53042719      14.92205094
H        8.08391967      13.78822799      14.81452480
H       10.63273026      15.38456784      14.92280846
H       10.55189079      13.68033941      14.90905154
H        9.98364353      14.54034850      16.23448847
H       14.95669440      14.53014130      13.59050221
H       14.43615426      15.42424362      15.00408656
H       14.43858040      13.66882413      15.02640562
H       16.91535105      15.36808843      14.80777478
H       16.87826667      13.66523891      14.90873107
H       16.43126003      14.60460752      16.22558474
H       21.21218206      14.49531544      13.58783562
H       20.55634931      15.29782256      15.00451234
H       20.59264039      13.54359896      14.92205058
H       23.04253645      15.29717163      15.01285640
H       23.05104333      13.60010475      15.02983258
H       22.43230731      14.46419398      16.33980823
H       28.18541807      14.35491082      13.73375827
H       26.67632497      14.38028597      14.59516621
H       27.71246814      12.98168391      14.68886469
H       28.37602119      15.66737358      15.82893578
H       29.52450389      14.31409049      15.80911349
H       27.98073974      14.30047351      16.70919583
H        8.65299827      20.95516945      13.49228717
H        8.24744712      21.89047834      14.92119928
H        8.02420447      20.14981949      14.91405469
H       10.69778823      21.51676686      14.71325353
H       10.46311800      19.82826464      14.80130484
H       10.12719256      20.81856331      16.12312583
H       14.95938377      20.76847405      13.59806791
H       14.44375173      21.65573405      15.02160165
H       14.43014322      19.89920470      15.02381551
H       16.92130742      21.56876293      14.82078596
H       16.87592509      19.87658559      14.91859875
H       16.41703855      20.81616801      16.24084233
H       20.58266112      20.35203066      14.24698826
H       20.58021000      21.59071069      15.48457799
H       20.75110777      19.90217276      15.92992451
H       22.74010362      21.48241403      14.35684884
H       22.94935594      19.84796996      14.79976016
H       22.94510358      21.03783358      15.99373987
H       27.45143162      21.69770144      14.05100352
H       27.13097490      21.59018420      15.77074545
H       26.42988172      20.43249460      14.67536178
H       29.36177635      20.72904660      15.37581115
H       28.72568245      19.60962383      14.18701567
H       28.33126369      19.42727794      15.80928066
H       14.85688762      26.95435667      13.61447635
H       14.72335669      28.13212112      14.91338068
H       14.58933019      26.41746607      15.25380789
H       17.11751156      27.61719553      14.15644381
H       16.92982476      26.06319979      14.80492743
H       16.86679439      27.41618784      15.81404732
H       21.78018150      26.92686527      13.37171839
H       20.74673953      26.91397727      14.79404140
H       21.34469108      25.41585636      14.13510092
H       23.11132436      27.53113585      15.35584501
H       23.60761374      25.99020259      14.81191837
H       22.57842226      26.08166891      16.12995479
H       15.79849537       8.88302309      19.91180186
H       15.40225019       9.91775337      21.25159254
H       14.32599018       8.63036776      20.79498984
H       17.08462331       8.15239430      21.79962597
H       15.90605144       6.90570836      21.45230874
H       15.75770048       8.04937951      22.81339611
H       22.36612579       8.34278380      19.48796137
H       22.22296473       9.59695344      20.67873126
H       21.35174392       8.11162696      20.89088155
H       24.38201842       8.39718964      21.10818087
H       23.60317923       6.85353786      21.03360648
H       23.27018441       8.00165210      22.30109785
H        9.02873585      14.94240525      19.92687056
H        8.42735257      15.59952186      21.44224789
H        8.30445393      13.88126264      21.11502514
H       10.84467731      15.42598059      21.57006498
H       10.79199554      13.78022844      21.14443695
H       10.14647016      14.27433792      22.62918850
H       15.58477820      14.70956433      19.52588469
H       14.56500935      15.53517668      20.68472892
H       14.65984302      13.78335900      20.68354438
H       16.95381467      15.62382746      21.36594393
H       17.01445225      13.92137029      21.36383590
H       16.04834595      14.73756741      22.48953951
