     412
 i =      732, E =     -2362.1781988058
  I        12.8004137898       11.2735922768        8.7240061691
  I        18.3462502327       11.9110365196        8.8251903213
  I        12.6994860352       18.9632770979        7.9007465338
  I        18.5019766276       17.9987761323        8.6189822456
  I        12.2498601026        8.5577576323       12.4900023214
  I        18.8268220990        9.1543583402       12.5129797998
  I         9.4157010763       12.2490670790       11.8984928455
  I        12.1716873041       12.0132177882       15.3058572189
  I        13.0855006723       14.9211809329       11.5247541295
  I        15.2317161552       11.9586969746       13.8424801186
  I        19.2133062562       12.4456212909       15.2035222797
  I        17.6646786333       15.5198646958       12.3418810691
  I        21.7299096527       12.8881609579       11.4224383820
  I         9.0920123141       16.6401417343       10.3692073055
  I        11.8015966536       18.2173642749       14.6519660063
  I        10.6247183741       21.3089296191       11.5291222550
  I        14.7400832120       18.7828616185       10.3875009337
  I        19.6158864460       19.6651414269       14.9368602334
  I        19.3317567067       21.8572266572       10.7587344222
  I        21.6784058370       17.8006377739       11.2911886065
  I        12.6299767174        8.6903750436       17.7762528265
  I        19.5410045944        8.8761827452       17.7378670835
  I         9.4781397335       11.5446670065       16.8417594764
  I        12.2022895292       12.1698041388       22.0377011988
  I        12.0456038904       15.1860808869       18.6549625268
  I        15.6703164337       12.0101944441       18.5241881038
  I        18.9643403688       12.8511109469       21.9067178422
  I        18.3838669718       15.5538363923       18.2311611710
  I        22.3037711967       13.0972759716       18.6251179855
  I         9.5880327617       19.4996305980       18.6155928341
  I        13.4479310838       19.0317410007       20.8672663614
  I        12.8343526997       23.0847068079       18.1966676684
  I        15.7369468062       18.8081814159       17.1647367200
  I        18.5489872366       18.7269079574       21.4686010876
  I        18.7594809557       21.9802846744       18.6366870055
  I        22.1164004340       18.3459005061       18.4772826783
 Pb        12.4069866856       11.8935574502       11.6895938674
 Pb        18.8033301696       12.5176808110       12.2234152525
 Pb        11.5971044211       18.2676619003       11.5626290101
 Pb        18.8347679453       18.8404245698       11.5532882344
 Pb        12.6559586833       12.2135921691       19.0697046386
 Pb        19.2671159697       12.6893521194       18.8932661688
 Pb        12.7718600308       19.8321736115       18.0457818642
 Pb        18.9965195354       18.9460937990       18.0886851368
  C        15.1184184200       15.2098741535        8.1365599606
  C        15.5736308647        8.1935329353       14.7645805436
  C         8.9277379006       15.3251181376       14.9363946247
  C        14.7650681244       15.5605220262       15.4150061336
  C        21.8954024729       15.2267280885       14.8887311910
  C        15.5110801025       21.3697622469       14.2658189570
  C        15.4420219351       15.2286965959       21.0887664755
  N        16.4455865028       15.2307291635        8.9679666587
  N        16.4375432126        9.1707023946       15.6252228005
  N        10.3826620911       15.2244856085       15.5041549446
  N        16.2207478751       15.0012214102       15.5074011064
  N        23.4017524975       15.0046506233       15.1867496341
  N        16.6660116385       21.5964520597       15.2856889740
  N        16.4379690017       15.7618077053       22.1571673855
  H        15.3841717325       15.2803520412        7.1078698755
  H        14.5313862982       16.0396716599        8.4463022363
  H        14.6154903235       14.2959916264        8.3414863530
  H        16.9927766905       16.1228417358        8.7844320434
  H        17.0461621508       14.4235515894        8.7173164031
  H        16.2628183504       15.2006136830        9.9945529101
  H        15.5147397130        8.5959294527       13.7845406999
  H        14.6139312399        8.1211513067       15.2085506443
  H        16.0608688460        7.2466279040       14.7232246723
  H        16.1706042530       10.1478440994       15.3849967156
  H        17.4902899053        9.0324161896       15.4250007504
  H        16.2750961047        9.0183435141       16.6320871892
  H         8.9970026432       15.2801509440       13.8765446620
  H         8.5257402779       16.2555761995       15.2541901103
  H         8.3450371206       14.5177821174       15.3151336886
  H        10.9153494208       16.0973323965       15.2255522266
  H        10.8741094545       14.3897656791       15.1263502106
  H        10.4185578726       15.1614219896       16.5453494946
  H        14.3150423847       15.1528733353       14.5426099549
  H        14.8305253817       16.6183502218       15.3533285053
  H        14.2497694708       15.2736396210       16.2986027670
  H        16.7543340795       15.2684186046       14.6423317358
  H        16.1893723393       13.9635639475       15.5415743111
  H        16.7308327674       15.3512701873       16.3558756524
  H        21.8117239870       15.7385327470       13.9625711707
  H        21.4805821876       15.8121622839       15.6720386434
  H        21.4017238221       14.2922443576       14.8356140386
  H        23.8919271915       16.0027097618       15.2464055557
  H        23.9120639145       14.5268083141       14.3839052137
  H        23.5365793679       14.4805581700       16.0599582335
  H        15.8277591136       21.7595945975       13.3314809160
  H        14.6479258328       21.8851404926       14.6101111226
  H        15.3037200660       20.3302812970       14.1981711354
  H        16.9629769709       22.6606052760       15.2702366177
  H        17.4993682971       21.0175432160       15.0377634163
  H        16.3774816142       21.2977579960       16.2330751941
  H        15.9740598216       14.9521461586       20.2143082829
  H        14.7501208940       16.0049565575       20.8681330609
  H        14.9408901824       14.3899224469       21.5018637199
  H        16.9418574806       16.5938930839       21.8050104533
  H        17.1439283162       15.0438735797       22.3882917264
  H        15.8380606421       16.0489063632       23.0792488900
  H         6.2215509360       12.9737791676       10.3100576417
  O         6.2866722216       12.2015856683        9.6046799546
  H         5.4534838841       11.6512518091        9.6440537662
  H         5.9138440136       10.7510503243       14.0937646284
  O         6.7880489949       10.3048244483       14.3096849254
  H         7.3448069624       10.9565612665       14.8431618247
  H         6.6772115771       10.7320798272       18.1995554033
  O         7.4993698573       10.7960642302       18.7771832024
  H         7.4741051499       11.7812468182       19.3436153851
  H         6.0110380688       14.8757010668       11.9557309996
  O         6.1877832679       13.9206639950       11.6106721954
  H         7.0128286790       13.6019467626       12.0918548380
  H         5.6767684897       14.6213747493       15.0244051550
  O         6.0584309916       14.0799898911       15.7760398813
  H         6.2570605053       14.7465124821       16.5336511155
  H         6.6566651703       13.5786756535       19.6805561475
  O         7.3948473609       12.9619839460       19.9452746460
  H         8.1303367824       13.4477157639       20.5928516077
  H         6.2425846438       17.3105363206       13.1181113535
  O         6.4111591002       16.4122188905       12.6585245970
  H         7.2312517236       16.5635080626       12.0821577583
  H         6.4601971622       16.8987773600       17.7849721021
  O         6.7800360030       15.9236895472       17.6686299618
  H         7.5600782953       15.8001519393       18.2845921290
  H         6.2606406015       19.3210550878       12.0858903762
  O         6.2868321611       19.4250875435       10.9618724677
  H         5.8903215492       18.6292341367       10.5052296838
  H         5.4609081993       19.3930427285       13.8880932721
  O         6.2930263360       19.1144416184       13.4045500791
  H         7.1945365823       19.7457672721       13.8114631954
  H         5.6661866541       19.1562909361       18.5472442056
  O         6.2982926895       18.5650580651       18.0425855543
  H         7.2307404560       18.9715672988       18.1062764643
  H         8.5695953192        8.2242452381       11.5514322541
  O         9.0483751949        7.8792597778       10.6633345331
  H         9.1755036366        8.5312201294        9.6778103544
  H         7.5882230877        9.1825088306       13.4144350512
  O         8.2750383587        8.5351058246       12.9835344748
  H         9.1495690480        8.6824342277       13.4535743173
  H         8.2809932586        9.3447097357       19.0055121850
  O         8.9351275672        8.5401358307       18.9973228382
  H         9.6655178312        8.8013233593       18.3626497037
  H         8.9939619975        8.5482257660       21.4641869862
  O         9.0556393249        8.4251695166       22.4646228058
  H         9.5345411002        9.2360348468       22.8160696576
  H         7.4437270607       11.6719690150        8.8150366105
  O         8.2781065867       11.3456830359        8.2337253577
  H         8.8771903615       12.1510779239        8.0792275654
  H         9.5369757198       14.5153639406        8.7180751175
  O         9.9410972856       13.7104670773        8.2424385543
  H        10.6222292844       13.3201873598        8.8835473764
  H         9.3127724047       15.0924794813       21.4849066611
  O         9.0937392601       14.0804598574       21.3940041983
  H         9.8839585500       13.5352685041       21.7023214424
  H         9.2220971505       17.3580005818       22.1137935474
  O         9.7174515252       16.6317197480       21.6266581106
  H        10.3263357796       17.0677205732       20.9480225786
  H         8.3441813263       19.9673260430        8.6863958158
  O         8.9407929036       19.1041555535        7.9142854126
  H         8.9923130931       18.2129634146        8.3921706992
  H         7.0740244296       20.0732519288       10.2159780551
  O         7.8421537124       20.6170149847        9.4991658452
  H         8.5543274538       21.1015378579       10.0334158903
  H         8.3598884533       21.1207590535       15.0194377635
  O         8.1703452248       20.5121080013       14.1378617295
  H         8.8968450161       20.6536218079       13.4533091336
  H         9.2153185075       22.8278069967       16.0864465886
  O         8.7266503712       21.9166484716       16.1455934068
  H         9.0890974358       21.3706131378       16.9211639763
  H         9.9806741876       22.1864049325       21.6781344979
  O         9.3180716572       21.4303336109       21.7045151206
  H         9.4493519826       20.9013539221       20.8539575482
  H         9.8703915604        7.2839208950       10.9515019212
  O        11.0499473641        6.5814179215       11.6055478858
  H        11.7818880465        6.1991282572       11.0094955122
  H        10.7903390391        5.7752553153       15.8742447803
  O        11.6909628281        6.0412648974       15.5107234256
  H        11.6332693581        6.2182037586       14.5194698243
  H         9.3289392970        6.9517114391       19.1785520891
  O         9.8222067300        6.0445420969       19.2092869986
  H         9.8759555587        5.7798154692       20.1746403991
  H         8.8532767452       10.1757313734        8.4622933836
  O         9.3848933633        9.1844855962        8.6498334006
  H        10.3461627631        9.2356585544        8.3749311941
  H        10.7005552652       10.7363586738        5.6499661640
  O        11.6491367976       11.0625698695        5.5695248348
  H        11.6228249116       12.1052777019        5.6926662572
  H        11.6509119179       10.4082735200       26.1113584568
  O        11.7770371784       11.1783521741       25.4801719670
  H        12.4030340033       10.8657932041       24.7567363445
  H        10.7617039635       13.7733788543        6.8301064052
  O        11.3680794786       13.6124221141        6.0112197401
  H        11.5277127343       14.4665663163        5.5195995237
  H        12.1839651475       17.0927894142       23.4773870278
  O        12.8009785091       17.4861160394       24.1594272515
  H        12.5249809686       18.5054871194       24.2959735703
  H         9.7504912326       19.1873791464        7.2064809180
  O        10.9289703519       19.1113428727        6.3313021403
  H        11.1773274374       19.9189669077        5.7702150601
  H        11.4098781067       20.1686302449       25.1730407607
  O        11.9988839046       19.9029346634       24.4132951716
  H        12.2057441506       20.7356268288       23.8022648592
  H        12.2875223906       22.6672662539       22.4210537562
  O        12.6991605343       21.7996906574       22.7903809153
  H        12.9528262021       21.2139324754       22.0047005281
  H        11.5327579919       23.7767585975       11.0193226522
  O        11.9180737572       24.7082275421       10.8734300942
  H        11.9786525330       24.8821401492        9.8859297045
  H         9.7798832112       25.1764811665       16.4008163418
  O        10.1519324175       24.2789604652       16.1488338767
  H        10.9862589260       24.1021708243       16.7045695289
  H        11.6265764390       24.8710437737       21.6879716468
  O        11.6563927810       23.8944549110       21.4602055145
  H        11.9763734778       23.7939600666       20.4968539317
  H        15.7430172385        7.3818115905       10.4389810767
  O        16.2354206772        6.5814115673       10.8638638538
  H        17.0545985475        6.4257447993       10.3060682978
  H        12.8239011018        6.4194686749       16.4540125770
  O        13.5799331780        6.8061628391       17.1006044919
  H        14.6129759760        6.5095462112       18.3637804468
  H        15.1832994978        7.2585985036       20.0567169869
  O        15.3347233155        6.4919651122       19.1030042002
  H        16.2616594544        6.0766390100       18.7505335745
  H        14.3867306613        9.0988467374        9.3485992934
  O        15.2871147054        8.6914915729        9.5623146601
  H        15.9648557836        9.4241470828        9.4460172952
  H        13.9771928389        7.8407485834       21.3395318992
  O        14.9054155522        7.9884786952       20.9987509729
  H        15.4196464214        8.8976837990       21.5029092191
  H        16.0320373314       11.8401250044        5.6312622907
  O        16.7635030082       12.5176368152        5.6937968089
  H        16.5238448747       13.8417314867        5.3225798258
  H        13.7564503223       13.6470279141       24.8642973169
  O        14.7359631790       13.7499623278       24.6716914431
  H        14.9558328033       14.7731312257       24.6262864676
  H        14.1435782211       16.8493504523       24.2169602246
  O        15.1222709454       16.4050220927       24.2690733802
  H        15.7582186372       17.1653923942       24.6280673801
  H        15.2826170278       19.1846063650        5.3485314618
  O        16.1061848463       19.1075043063        5.9024325383
  H        16.4168971110       20.1032074645        6.4820856180
  H        13.8811144573       21.6582178549        8.0625192608
  O        14.7367034047       22.1664264508        8.1709871575
  H        14.9407425602       22.3729607881        9.2477693806
  H        15.4999314232       21.5547026317       10.9167952622
  O        15.2362590599       22.4491786614       10.5552829083
  H        15.6274089916       23.2718157949       11.1326065912
  H        12.9902457643       25.1013528304       11.9085476148
  O        13.7590631381       25.3012229648       12.5964797437
  H        13.4090210976       25.7312732516       13.4265757620
  H        14.9831666054       24.2549791553       17.4580881116
  O        15.7802687432       24.8251048509       17.2035972987
  H        16.2019884263       24.5444823321       16.2913594270
  H        16.5157700615        6.1389420633       12.4280545601
  O        16.8368676500        5.7888616216       13.3532051862
  H        17.5777315804        5.1452639845       13.1528166942
  H        17.5017149825        5.1350268702       17.2364726604
  O        17.4545225960        5.5062751573       18.1635208660
  H        18.3894326918        5.4840124538       18.6197265891
  H        15.8276998388       10.5683377625       22.9246191179
  O        16.0054389063        9.9351448096       22.0482727641
  H        16.5966667356       10.4335880071       21.4090679612
  H        15.3704283158       12.4119146879       24.2310424551
  O        15.7844519335       11.4453877761       24.0595126408
  H        16.5009473966       11.2793438946       24.7381797368
  H        15.8365537228       14.8523947521        4.1304630408
  O        16.2934252027       14.8675676631        5.0179095438
  H        16.9321036777       16.0743574879        5.3277481217
  H        16.6977445989       18.0812041304        5.7716948129
  O        17.3361747903       17.0510233841        5.5863064103
  H        18.3344112721       17.2300514356        5.4323034541
  H        16.4865275393       19.3052312127       24.3179834392
  O        16.7266941032       18.3819286874       24.7165450060
  H        17.6933980006       18.1841776547       24.5330897267
  H        15.7668231354       21.6625540723        7.5616628613
  O        16.6719594707       21.1562836762        7.0724592411
  H        17.4673102080       21.1035913479        7.6797169750
  H        15.1757062133       21.1104762483       23.5659400356
  O        16.1089844624       20.7274914812       23.5284981897
  H        16.3855018822       20.6769976291       22.5595531979
  H        15.0823477923       24.8529074868       12.2653404257
  O        16.0050754866       24.4041935126       11.9267657360
  H        16.5805160514       25.0734575129       11.4538916396
  H        17.1549998948       24.4424399077       14.2094158082
  O        17.2594777745       24.1174824548       15.1554875278
  H        18.1602321610       24.5669143762       15.6659929167
  H        16.8329582992       25.1687380471       18.1154365325
  O        17.7706041656       25.4892607622       18.5702247384
  H        17.6283319281       26.3735562898       19.0186249319
  H        20.0231847154        7.2956662402        9.6848678252
  O        20.4858937034        6.7384262455       10.4088006860
  H        21.3884155996        7.1777852991       10.5476447226
  H        20.7079209916        6.6268369644       13.7463895291
  O        20.8503527569        7.0169123441       14.6625613587
  H        21.9928297862        7.7829924967       14.9226439202
  H        20.0337485752        5.3396658053       20.2870897794
  O        19.8715488089        5.5115542895       19.3097762922
  H        20.4491954039        6.2950569736       19.0331113098
  H        19.0552642544        9.3482252765        8.8267130361
  O        19.3178580078        8.4204267693        8.5393715226
  H        19.4818917032        8.4598807687        7.5489636800
  H        19.4932635376        9.8342739823       15.1656205727
  O        19.0632748046        8.9034684730       15.2442689037
  H        20.0481289785        7.6426984601       14.8939193724
  H        17.6782171218       12.0708793249        6.0623372135
  O        18.8741185942       11.5553863827        6.6555921582
  H        19.7427227607       12.3247439909        6.4198648421
  H        20.3729104011       11.6200332806       24.1185131344
  O        21.0845160213       11.0083097070       24.4801541980
  H        21.6723789788       10.7599653594       23.6753494735
  H        20.8136758268       13.4395356462        5.1774266506
  O        20.6435241327       13.1704960218        6.1219817679
  H        21.3381211001       13.6013449814        6.8869907924
  H        20.0481431552       17.9557162245       24.0959442256
  O        19.6462594761       17.0607149882       23.5262651151
  H        20.4898358899       16.7570307770       22.9246638804
  H        20.0439204226       18.8290130654        5.0912365338
  O        19.8717100665       17.9216987524        5.4877204856
  H        20.0300647459       17.9863133430        6.4868166370
  H        20.3518102959       19.8359758134       24.9699680842
  O        20.7460139285       19.0028635613       24.5911331208
  H        21.5912593692       19.1653093272       23.9102590566
  H        20.5992040425       20.6814478801       21.2700932981
  O        21.5351211301       20.9482710829       21.5194089228
  H        22.0054093554       21.6259262421       20.7518615090
  H        21.5527516452       22.9229360986       11.0199371329
  O        22.5688249227       23.0399316455       11.0622403235
  H        22.7892475333       24.0029653653       11.2377814837
  H        18.6137453892       25.3771094587       17.4312265145
  O        19.0901114233       25.1510047776       16.4657372524
  H        19.9507347167       24.6619813920       16.6158475183
  H        20.1006236963       24.4439827650       19.4547123668
  O        21.0733303718       24.7192001326       19.5226508354
  H        21.1307984025       25.5420436405       20.0952202349
  H        22.9038524932        9.4618253771       10.2695714769
  O        23.1754970315        8.5360314120       10.5538416068
  H        23.9145385912        8.6862825030       11.2218185499
  H        22.7081721941        9.4112286629       14.5026279720
  O        22.7522052659        8.5364021296       15.0935310297
  H        23.2310305190        8.8081507394       16.0831232217
  H        23.3812259151        9.3191701923       18.0161455107
  O        23.8264005978        9.3909726970       17.1137993018
  H        24.2532084630       10.3565892212       16.9182927389
  H        22.3371540120        9.2635805287       20.9529086044
  O        22.5244610998        8.5273350991       20.2617024456
  H        23.3331545614        8.0428139524       20.6030304389
  H        22.5592141561       11.3662871635       13.2469668428
  O        22.8611813905       10.8105205601       14.0398717829
  H        23.4406385377       11.3643354759       14.6563981099
  H        21.6077182427       11.3076517751       21.6413838936
  O        22.2953802213       10.6905536903       22.0450818433
  H        23.2279011498       11.0506336165       21.7585289914
  H        22.0320125956       13.6737197599        8.7718681362
  O        22.1110069659       14.0948575212        7.8579388870
  H        22.3033026988       15.1317855184        7.9396272272
  H        22.1201008412       17.0961832702        8.9406486181
  O        22.5191522999       16.6266055868        8.1267465715
  H        23.2209885210       17.2108820846        7.7105256558
  H        21.7075831625       16.6713618038       21.1608738906
  O        21.8515251252       16.7414839542       22.1547253956
  H        22.2357246820       17.6917396402       22.3639124172
  H        22.2006649824       19.4625296805       14.6805139266
  O        23.1835964469       19.5417884483       14.4575255984
  H        23.2468124830       20.0671351259       13.5697092332
  H        22.1180175607       20.0791126294       22.1917331821
  O        22.5361617678       19.2185265025       22.8999333190
  H        23.4607426384       19.3998241395       23.2324208513
  H        21.4705237985       21.6482173310        8.2747397029
  O        22.4012297389       21.8063626994        7.9233033500
  H        22.8905679498       22.2759723251        8.6685220359
  H        22.5980859229       20.1311322395       11.5799928683
  O        23.2958927347       20.7134134037       12.0274046094
  H        23.1516618023       21.6884622947       11.7022649231
  H        22.6574683126       20.5004297471       17.5449248275
  O        22.9559156320       21.4738609636       17.4097364666
  H        22.4601664529       21.8352870087       16.6142971796
  H        22.7538049021       22.1125638790       18.8842575485
  O        22.5160618631       22.4592492010       19.8355483808
  H        22.0318159289       23.3660063977       19.7579516288
  H        24.8963619052       11.9846340021       11.7593130108
  O        25.1647482598       11.1283170622       11.2948675787
  H        25.6668170769       11.4004944872       10.4697451944
  H        25.2185858925       12.4977596423       16.7836149223
  O        24.9516415163       11.5470764058       16.3510741981
  H        25.7626691504       11.1898998469       15.8816773875
  H        24.1130274738       12.0366314466       20.0866274974
  O        24.5078679918       11.5563227484       20.8919474762
  H        25.3363686150       12.0438032085       21.1796228821
  H        24.9515764106       15.0845654136       12.4987723659
  O        24.9932816909       14.2159494304       13.1100300945
  H        25.9560891827       14.0853291763       13.3486210639
  H        25.4103414792       14.5191577931       17.9508134548
  O        25.7246149999       13.8215783948       17.1976033630
  H        26.5408267463       14.1815715569       16.7487773981
  H        23.9727628485       16.2736809392       11.1020720153
  O        24.8370653183       16.3036723973       11.6069159483
  H        25.0885075267       17.3112497544       11.7404151251
  H        23.9269832670       18.0397000336       14.6655000312
  O        24.5005477055       17.2846644839       15.0878615410
  H        25.0434031151       17.7838885637       15.7972928397
  H        23.9066525679       15.3737494243       19.0731215453
  O        24.8938292046       15.4854731809       18.9120974557
  H        25.1783938352       16.4494049972       19.1725003703
  H        24.6635157124       19.6326725939       11.8448851385
  O        25.3880376562       18.8964318313       11.8236480971
  H        26.1020877599       19.1537387065       12.4790862019
  H        24.6460975455       19.8216093284       15.9720745557
  O        25.3861442261       19.3305335717       16.4625337703
  H        25.4480659405       19.6975390584       17.3933815727
  H        24.3352724347       18.3972961075       19.4799363873
  O        25.2765163033       18.0296470013       19.6304489865
  H        25.6470147451       18.3957838663       20.4881669281
