     568
 i =      863, E =     -3256.1157499558
  I        12.8741729852       12.2360335253        8.8958070575
  I        18.5975917205       12.5735845012        9.1011435440
  I        11.9989006865       18.6819228831        9.1285871690
  I        18.6314090926       18.3507539805        8.9211779198
  I        11.9152957769        9.2254689689       12.2700741123
  I        19.2975250256        9.4404862046       12.3072871123
  I         9.4501519596       12.9116730078       11.5709786249
  I        11.9857416406       12.2682700163       15.0960687727
  I        12.8102256563       15.4038938421       12.0635878769
  I        15.6583112140       11.7775587729       12.4837524858
  I        18.8291850448       12.4481784547       15.4851221674
  I        18.0892992874       15.7528218722       12.4187324396
  I        21.9381767575       13.3775180917       12.2162728517
  I         9.1360310250       18.3823574725       12.5109078364
  I        12.6329592500       18.1206831353       15.4152261462
  I        12.0109540657       21.8240645912       12.5452008219
  I        15.5218684800       19.0814645015       11.8494339032
  I        18.8209623457       18.8040988822       15.3340811302
  I        18.6658396497       22.4409833978       12.3016360890
  I        22.1059912342       19.1532407852       11.9515209510
  I        12.6756032568        8.3759182192       17.8975307148
  I        17.1928661121        8.5914861503       18.0660119545
  I         9.4104844498       12.9980664021       18.2133642840
  I        12.2440896156       12.2952811351       21.3954119430
  I        12.9817253254       15.0939890802       18.2854057566
  I        16.0836345756       11.6596198695       18.7575334274
  I        19.8308191751       12.3782765665       21.6359176202
  I        19.4019839135       16.0710514315       19.2016025377
  I        22.5335298785       12.6947793593       17.8991912415
  I         9.5019629263       18.6802089897       18.1151616718
  I        12.7122488892       18.2925520762       21.0027013122
  I        12.3432567084       23.5201509775       17.4041956936
  I        15.7001906348       18.0645674056       17.9830504708
  I        17.6703043368       19.2116360415       21.9496424956
  I        16.8971444778       22.4089568434       18.8035403010
  I        21.8208274558       19.5482961737       18.2272981767
 Pb        12.5938432805       12.1893501325       11.9615445058
 Pb        18.9783387367       12.6547582998       12.1678964455
 Pb        12.2082644441       18.6543319524       12.1918271238
 Pb        18.6982142767       18.9545798908       12.0197583739
 Pb        12.8212625918       12.0992687507       18.3709935163
 Pb        19.5095636059       13.0008421507       18.6382033130
 Pb        12.4242868671       19.5740509282       18.2591767158
 Pb        18.2599906539       19.3528421546       18.9319167382
  C        15.0361862548       15.5529882661        8.5373104835
  C        15.0315577108        7.5601168882       14.5443786593
  C         9.0248208066       15.2127868699       14.8647435211
  C        15.2533140554       14.9768718347       15.0109339165
  C        21.3452336752       15.8780514614       15.4202300716
  C        15.2357374310       21.2480161674       15.1001460270
  C        15.5771385356       15.2252125711       21.1196669907
  N        16.4552558342       15.4484966365        9.1892851382
  N        16.4418859696        7.9785001739       14.0321409856
  N        10.3817521104       15.3336392093       15.6240200670
  N        16.6740676820       15.2364911418       15.6204369072
  N        22.8519566084       15.5314732853       15.5200353154
  N        16.7534731976       21.4943937113       15.3924384162
  N        16.7832085909       15.5302712798       22.0607433417
  H        15.1750669496       15.7120883156        7.4960663873
  H        14.5261837614       16.3686803101        8.9901873453
  H        14.5189719432       14.6422670044        8.7219676053
  H        17.0526663603       16.2714359953        8.9257109822
  H        16.9555921747       14.5688588682        8.9103333289
  H        16.3940846118       15.4563708599       10.2292439172
  H        14.4535831924        7.2829693930       13.6979385777
  H        14.5920176927        8.3845353293       15.0459002652
  H        15.1506869254        6.7407441876       15.2174086765
  H        16.3776572935        8.8212029686       13.4437375281
  H        16.8799447556        7.1613174943       13.3876980954
  H        17.0695260937        8.1689273987       14.8243807874
  H         9.2097896878       15.3883112637       13.8339138070
  H         8.3537050927       15.9310803513       15.2659425835
  H         8.6584914263       14.2292774026       15.0272341950
  H        10.8788557386       16.2358642054       15.4268416339
  H        11.0052966897       14.5272264674       15.3605785436
  H        10.2219273659       15.2665288489       16.6478751884
  H        15.3933395511       14.5242230811       14.0609941670
  H        14.7570235460       15.9129081049       14.9246257084
  H        14.7303408793       14.3263524143       15.6668246243
  H        17.2453712070       15.7693367882       14.9248242998
  H        17.1724197180       14.3273154469       15.7902210644
  H        16.6019904383       15.7955456199       16.4958364684
  H        21.0265570089       15.7042509892       14.4226400784
  H        21.2309688065       16.8987268260       15.6775145402
  H        20.8022292318       15.2698907864       16.0968713615
  H        23.4271927054       16.0563348008       14.7106647674
  H        22.9961227611       14.5179192784       15.4283101532
  H        23.2645010495       15.8392595176       16.4274490064
  H        15.1641270965       20.6924752930       14.1975140850
  H        14.7452952012       22.1856987161       15.0185420343
  H        14.8432401249       20.6809727525       15.9078166835
  H        17.1914735142       22.0644704991       14.6411754608
  H        17.2833985357       20.5774596918       15.4232723692
  H        16.8588000088       21.9633440986       16.3205839659
  H        15.9457881279       14.8288759851       20.2079981185
  H        15.0574469892       16.1351891424       20.9444537252
  H        14.9465289168       14.5203842021       21.6034864695
  H        17.4537506585       16.1514222429       21.5820080666
  H        17.2670431625       14.6525131539       22.3094421281
  H        16.4275637112       16.0400995546       23.0044522237
  H         7.2367346412       11.0859142368       10.7098798091
  O         8.0569435628       10.9010844883       10.1400897325
  H         8.4055881488       11.6580318917        8.9380541038
  H         6.5505474357       11.9879569708       13.5702640878
  O         7.4082555794       11.2353745207       13.9286385189
  H         8.2445936924       11.7375026033       13.6814209343
  H         6.3459514424       13.3306331550       17.4080250323
  O         6.9560056743       11.8717723836       17.3015981111
  H         7.2383623785       11.5081230599       16.3936735556
  H         7.0302572115       10.9643898842       18.3292466797
  O         7.1780930613       10.2595412382       19.2027878896
  H         7.3506637450       10.7754794298       20.0532293543
  H         6.0980233112       15.2431346190       10.7875909642
  O         5.9568186526       14.1391724935       11.0776511525
  H         5.9000497168       13.5545598398       10.2725110750
  H         5.2286470565       13.3339210136       13.8752054506
  O         5.8472622565       12.9496216847       13.1958672798
  H         5.9112496326       13.5428902828       12.1894923671
  H         6.1091999569       15.1084411920       17.1410032819
  O         5.9610865180       14.2523772297       17.7254971552
  H         6.1121384349       14.4361158432       18.9688951441
  H         6.5503042951       15.7412367176       20.5081719044
  O         6.3385662887       14.6052300559       20.1036390101
  H         7.0023298540       13.9399248851       20.4440713287
  H         6.0367431779       17.3923586588       10.6797875792
  O         6.3022887028       16.4254216605       10.3380780186
  H         7.1699878382       16.5216091816        9.7706403625
  H         5.4750005550       16.6741056389       13.1291317251
  O         6.1819678309       16.8432763610       13.8205931579
  H         6.9540565206       17.3211786464       13.3643322512
  H         6.1555241594       16.6964923476       15.4442886837
  O         6.2907990788       16.5146394810       16.4538735146
  H         6.5569912973       17.3498001380       16.9376823890
  H         6.5031324376       17.7538157139       20.4153029507
  O         6.8477754416       16.8361432032       20.8951631013
  H         7.7794241494       16.9029439102       21.3465824372
  H         5.9328096728       19.5087805968       11.8233205224
  O         5.9587623628       18.8904954621       10.9705110400
  H         6.4318567455       19.3965419879       10.2461477913
  H         5.2508898685       21.1732783572       13.1303209888
  O         6.0213734095       20.5613385484       12.9514844034
  H         6.9135221668       21.1164787447       12.9493574866
  H         5.4721842698       20.2426024003       16.8012240404
  O         6.1739865097       20.1875919743       17.5119327395
  H         6.9003199462       20.8820415646       17.3276835289
  H         6.1278977064       19.3653509926       18.9752005620
  O         6.1829208401       19.0118025894       19.9405489014
  H         6.6510288963       19.7174827121       20.5296083475
  H         7.1228598688        9.2233486504        8.2806327752
  O         7.6102171061        8.4265325776        7.9145607608
  H         8.3256663766        8.1950746307        8.6201903502
  H         9.3180361880        9.0844616671       10.2941632006
  O         9.5631617785        8.2400043831        9.7989310011
  H        10.3904257554        8.5050757152        8.9356767335
  H         7.7868759698       10.0614064183       13.9690018447
  O         8.5068007038        9.0683347291       14.0338368694
  H         9.3659526825        9.3277389727       13.5677849525
  H         8.8998344279        8.7276136374       15.5021507937
  O         9.2718815293        8.2005729360       16.3436747937
  H         9.0435767977        8.3684180165       17.5827654691
  H         8.0014150792        9.3544066422       19.0005885646
  O         8.8181494707        8.5350033501       18.6922276917
  H         9.4557762534        8.1422272867       19.3527716540
  H         7.5982600671        8.9246134118       22.8494937136
  O         8.4921725536        9.2787991687       22.5848583468
  H         8.4581550945       10.2813392274       22.2392611549
  H         8.9902817261       13.0934430629        8.0723154452
  O         8.7176860919       12.0934148484        8.0155047925
  H         9.3286034708       11.3270528897        7.2626018930
  H         8.6617036865       12.5512102558       21.8685776673
  O         8.6099816565       11.5629875220       21.5232208840
  H         9.4155270917       11.4771441970       20.9193397494
  H         9.1215674674       15.4907393533        8.5112475865
  O         9.6088755608       14.5812242669        8.2376628798
  H        10.3166820187       14.4033808352        8.9341758625
  H         9.0276752803       15.0299819484       22.1283631201
  O         9.2702656885       14.0415680904       22.0558403464
  H        10.2111636735       13.9809596488       21.6857481849
  H         8.5644517083       17.7755151172        8.4997480756
  O         8.6105230887       16.8438776465        9.0763182570
  H         9.1927299574       17.0536675326        9.8757070994
  H         9.2948614472       18.0081569015       22.2908114106
  O         9.2830134044       16.9540105628       21.9443699467
  H         9.8834222106       16.9700773006       21.1329744896
  H         8.1351776135       19.9913822914        8.0571422795
  O         8.7314853887       19.1041228277        7.9189231284
  H         9.6627558345       19.3489424615        8.2319731479
  H         8.5587211136       19.9450399240       22.1791748107
  O         9.3206355361       19.3697359376       22.6041211739
  H        10.1912181487       19.9018897370       22.6571167446
  H         7.0171525027       21.8829197984        7.9154383465
  O         7.6026809487       21.2718739855        8.4399143703
  H         8.1227508456       21.7580753665        9.2386944031
  H         8.6142622679       22.1100765456       11.3420356771
  O         8.9451002467       22.2346958136       10.3460314709
  H         9.8734361680       21.8492896246       10.3007531029
  H         8.3714508466       22.8760254034       13.3430546694
  O         8.2782854442       21.9120163827       12.8718727073
  H         9.0086210362       21.2925377870       13.1892878628
  H         8.6902090268       22.6705857334       16.7214910398
  O         8.3954774305       21.8062017479       17.1972672341
  H         8.9902786281       21.0212341454       16.9391231502
  H         8.6274898812       22.0007179121       18.7487196808
  O         8.7842783125       22.1705264701       19.7713052198
  H         9.7606815186       22.3011570381       19.9645123875
  H         6.8959724703       21.4062006340       21.9958181995
  O         7.4948149261       20.8372201733       21.4304045684
  H         8.0270467486       21.4440407216       20.7136801677
  H         9.6803688194        7.2507443597       10.4952863687
  O         9.8242644868        6.2614842161       11.1895870749
  H        10.8620837857        5.8285405501       11.2498609500
  H         8.4242709362        7.7218318246       13.8109929773
  O         8.5093086692        6.5860955241       13.6133619740
  H         9.2662348001        6.2556752760       12.0486498352
  H         9.5512490708        7.2888872018       15.9789313333
  O         9.6952403276        6.1581589151       14.6531517516
  H        10.4585110512        5.9804590104       13.9950356664
  H        11.0894267612        5.3840975193       20.6455535070
  O        11.2446627487        6.3547977288       20.4779174940
  H        10.8759737157        7.0434858167       21.2789609274
  H        10.6238331735        9.6139179236        7.3641598539
  O        11.0546442266        8.8564825704        8.0084438010
  H        12.0738860544        8.6950494646        7.9085768204
  H         9.6752918118        8.5130949984       22.3830102976
  O        10.6008480643        7.9954725617       22.1647670303
  H        11.4156396055        8.4814611303       22.4960795556
  H         9.2856794396       10.0812017582        5.9656239931
  O         9.9360005742       10.5819089909        6.5420390425
  H        10.7973101456       11.5819467711        5.8728961648
  H        12.3166585956       11.3884086454       26.0362707948
  O        12.6526589871       11.7243060151       25.1585363129
  H        12.0839372581       12.5722757686       24.8762658593
  H        10.4346621301       14.7699797679        6.8561722880
  O        11.0358806568       14.7852749686        6.0157450004
  H        11.5202713103       15.8621593973        5.6583651002
  H        10.3265448354       13.4376817475       24.0737140250
  O        11.1435991459       13.7201509206       24.5844394609
  H        11.2154673473       14.7583846115       24.4521612854
  H        11.3218765500       17.8415563217        5.5476693675
  O        11.9277600164       16.9499669938        5.3821977323
  H        12.9424812045       17.1936114373        5.3894954656
  H        10.3987334600       16.5354217126       23.2891693664
  O        11.0392689302       16.3046706859       24.0576103587
  H        11.5295724014       17.1493512535       24.3125189306
  H         9.6958317746       18.8580173020        6.2633255501
  O        10.5885841810       19.0084962848        5.8064918441
  H        10.9458653364       19.9454213329        6.1621614155
  H        11.7553012001       19.3734089735       25.7042571376
  O        12.1399105906       19.2162723186       24.7955722426
  H        11.8535396811       20.0056276212       24.1109722514
  H        10.6520466588       22.0483458009        6.1795370076
  O        11.1358699169       21.3770996048        6.7400708436
  H        12.0151711731       21.8567208013        7.1172346652
  H        11.2049248857       21.9047033143       23.4790889776
  O        11.5810271254       21.0504794137       23.1180220610
  H        12.5633905772       21.2737064085       22.6346338956
  H        11.4323432472       24.3335805949        9.8158757999
  O        12.3601542895       23.9578684326        9.9268067131
  H        12.2985751020       23.1807910251       10.6087436235
  H         8.6752614005       24.9889781071       13.3601109768
  O         8.5005375785       24.1861172348       13.9284408248
  H         8.8919641835       24.2992447077       14.8932945831
  H         9.0152839048       24.9984601638       16.9682290730
  O         9.3796441680       24.2888447339       16.3577612599
  H        10.3988490124       24.1106834560       16.5954375138
  H        10.9830729891       25.2572233467       20.6365329973
  O        11.4767715875       24.4009894170       20.4675809891
  H        11.5565090571       24.2312500515       19.4496735274
  H        13.5915632758        7.1579449088        9.1357191220
  O        13.7992331962        6.6998327581       10.0185861106
  H        14.4605722403        7.3475517751       10.5462085609
  H        12.8856216368        5.9893897610       10.7089200040
  O        12.1349605806        5.3972809733       11.2895028705
  H        12.3181836880        4.4182383242       11.2393125141
  H        14.7522912549        5.8834454135       17.8206114540
  O        15.3414592269        5.5068233713       17.0986882729
  H        16.3075191177        5.7542860493       17.3538807120
  H        12.4050861203        6.8122452428       20.0164574720
  O        13.3617744923        7.3464034379       19.7242587077
  H        13.7465733743        8.4802992395       21.0746713241
  H        13.6492158212        7.7355606349        6.7753263005
  O        13.5866265672        8.3107169055        7.5931739134
  H        14.3617746035        9.0407347554        7.5586954008
  H        14.8506634325        9.2416234738       11.3900753595
  O        15.3428216099        8.4241688127       11.0786800969
  H        16.0854822359        8.6998783248       10.3999733859
  H        13.3277214958       10.0219163660       21.4346387222
  O        13.6856527661        9.1695346285       21.8379115335
  H        14.3722418692        9.8779444726       23.2474742306
  H        11.2275120213       13.7755718977        5.6978615071
  O        11.4277235526       12.3554348888        5.4682915825
  H        12.3744034669       12.0362163989        5.4321876878
  H        14.9385405063       10.8174343994        8.2592676504
  O        15.4581209049       10.1504909495        7.6989505152
  H        16.0298631782       10.7886818816        6.8911179723
  H        13.7334641613       10.9521140403       24.4645970459
  O        14.5886215017       10.4756354184       24.0557088759
  H        15.6037712930       11.3218165104       24.1152814869
  H        14.1865578872       14.2293715537       25.1494239352
  O        15.1717475647       14.2905316787       24.9920525349
  H        15.4875746291       15.2785909124       24.7712085477
  H        15.2762394382       17.4282061009       24.2853647285
  O        16.0212310092       16.6176012459       24.2722137950
  H        16.8394443541       17.0296983953       24.7595555887
  H        14.4176421471       18.4018969638        4.5011182841
  O        14.3800909530       17.8525843274        5.3384774862
  H        14.6303091172       18.4913080460        6.1825670647
  H        14.1766443274       19.0239483162        8.0715778462
  O        14.8999238854       19.2186161010        7.3889831873
  H        15.2743571590       20.1645210796        7.6034039277
  H        13.5291890133       18.8104588817       24.5944560701
  O        14.5556162997       18.5841713438       24.3733011123
  H        14.9457428118       19.2937978793       23.7849921613
  H        12.9505964178       23.2375612007        8.4243200915
  O        13.1387660343       22.6705769639        7.5995708492
  H        14.0953040091       22.2910824610        7.6683296018
  H        15.3036889766       21.3920007730       11.0616102026
  O        15.5673411853       22.2374177961       10.5522928349
  H        16.3903514063       22.6185434889       11.0112776295
  H        13.9592869528       22.5234908741       21.6739548828
  O        13.8028486040       21.5770545961       22.1579768395
  H        14.2811076579       20.8373428429       21.6786401537
  H        13.5089766801       24.8689780161       10.7992092700
  O        14.1916753062       25.3921777384       11.3493180409
  H        15.1598547412       25.4445107772       10.8955881938
  H        14.2826489691       25.5231433039       12.6280604525
  O        14.5736814660       25.8015071124       13.7204096855
  H        14.0812610660       26.6320133266       13.9797116597
  H        14.8889127365       24.3522651540       16.4749749497
  O        15.5652555440       24.7193054658       15.8262020125
  H        15.0677507244       25.1001634548       14.9602809221
  H        12.9896093783       24.1111000951       20.8503573148
  O        13.9700022569       23.7654175257       20.9622766548
  H        14.4116373412       23.6983242104       20.0604965595
  H        17.5046269381        7.5058877899        9.5956656483
  O        17.7717904760        6.5861697260       10.0254003876
  H        18.3852302504        6.0757091592        9.4268532956
  H        17.5655051993        6.3153855843       11.5011930746
  O        17.4441859346        6.1529045789       12.5496090401
  H        18.1765223448        5.5681495444       12.8973255368
  H        18.4075581543        6.0267904478       18.8848207611
  O        17.8712107672        6.3861868203       17.7229515588
  H        18.6524855276        6.4153226270       16.9151217400
  H        18.6080609114        6.3592670468       20.6747318070
  O        18.9841446463        5.8255625360       19.8388428574
  H        20.0258400726        6.2219563413       19.7053671853
  H        16.4079020815        9.4546470790        8.4872520349
  O        17.1103923003        8.9672429577        9.1830838224
  H        17.8057526014        9.6493787430        9.4398019948
  H        17.6951326653        7.9184449230       22.0538195570
  O        18.5000142983        7.3992502189       21.7630054337
  H        19.3451175884        8.0051180134       21.7972196576
  H        16.9420132425       12.6171523497        5.9910538380
  O        16.7124113126       11.4973604099        6.0364019663
  H        17.4897035250       10.9980296374        5.6532782000
  H        15.8475784950       13.0904556834       24.5823469700
  O        16.3325991218       12.1913169523       24.2671832496
  H        17.3631410013       12.0902994111       24.6169916824
  H        16.9762971761       14.8459327692        5.6383645494
  O        17.3899844437       13.8762379422        5.9121102747
  H        18.3896796679       13.9694818326        6.0566064932
  H        15.7089401009       16.6768127978        5.3052244557
  O        16.6242509187       16.2210351025        5.3852584619
  H        17.3393577762       16.9795221227        5.3495550863
  H        17.9635768235       18.7273805508        6.3885603291
  O        18.2154537771       18.3491898055        5.4879727401
  H        19.2466685627       18.3405654302        5.4558225688
  H        17.6081848031       17.8425819232       26.5715574317
  O        17.9925160273       17.8101023017       25.6472588100
  H        18.6188116787       18.6990089791       25.4926581552
  H        15.6283201401       21.9406676098        9.1140775815
  O        15.5955953948       21.7082447812        8.0636524619
  H        16.4025498395       22.0971206370        7.6178718007
  H        18.2550401538       21.8227815019       21.8654143629
  O        18.9872164975       22.4487384183       22.1630200458
  H        19.0281094068       23.2944523864       21.5823925197
  H        16.8577763922       26.4721254964       10.1476988498
  O        16.5970267393       25.6256455037       10.6125830800
  H        16.9786959551       25.6248697215       11.6138904520
  H        16.1282015345       25.8420096009       13.4391596256
  O        17.1064766306       25.6961821966       13.0852464735
  H        17.6153952468       25.0965965019       13.7083940756
  H        17.0013961187       24.6515337248       15.9590170122
  O        18.0947175895       24.6164382539       15.9330454186
  H        18.4727700607       25.5039381773       16.2003162643
  H        18.1607842707       24.0181214597       19.8778607247
  O        18.8639256681       24.5085799952       20.4681176316
  H        18.4924129478       25.3972120524       20.7592349323
  H        21.1035892010        7.6207864371       10.1430120155
  O        21.2174529460        7.6641912076       11.5013801376
  H        21.9912009889        8.3769211590       11.7031326886
  H        21.1219898116        6.8208486508       12.6050443480
  O        21.1908389157        6.2702411145       13.6101006197
  H        22.5834249135        6.9895836972       14.0356500172
  H        20.1543659063        7.5279967269       16.1454421163
  O        19.6556628564        6.5862898698       16.0292918747
  H        20.0394838392        6.0818228928       15.2443141143
  H        20.9222057311        7.8319790597       20.3551476349
  O        21.0914364090        7.0202542168       19.7284954519
  H        21.8922499191        7.2094990274       19.1133054729
  H        20.2763697737        8.0446112796        8.6602160293
  O        21.1446082187        7.7017325501        9.0210027976
  H        22.2031696105        8.3875283574        8.6277099968
  H        19.9215980475        9.4663281691       16.7117043615
  O        20.6412386951        8.8647788826       16.3561379985
  H        21.2539217174        9.4309665298       15.7224530333
  H        20.2203568336        9.8685280550       21.2593563161
  O        20.6488924991        8.9657296311       21.4227513090
  H        21.6338159375        9.1847532064       21.7904389793
  H        20.6010511499       12.9136233381        5.8639518208
  O        20.8626448750       11.7652170517        5.7946235632
  H        21.0251036684       11.4041786238        4.8794179561
  H        19.4220336195       12.8330093962       24.9974902477
  O        18.6560179109       12.0806200023       25.1221914353
  H        18.9238081860       11.3989319045       25.7974824145
  H        20.7696696706       14.8794832409        5.4385026549
  O        20.4220989367       14.1384151056        6.1249271156
  H        20.9133806199       14.3051843159        7.0567478315
  H        20.2350000651       14.8605621777       24.9379352622
  O        20.4333277673       13.8172959322       24.9007746426
  H        21.2428354088       13.6585936335       24.3350907395
  H        21.1617602324       16.9983031480        4.9243278469
  O        21.3030816237       15.9879470434        4.6419827198
  H        22.0236721261       15.9096045973        3.9567191866
  H        19.1390173042       16.8140822782       25.2726356413
  O        19.9778135574       16.3051411468       24.9018784301
  H        20.4914832096       16.9146771989       24.2993421001
  H        21.1434850679       19.1644489011        4.6829364169
  O        20.9757841416       18.4613649208        5.3762465908
  H        21.5188405278       18.7385942173        6.2893140250
  H        19.9817415153       20.3131244497       24.6473242902
  O        19.6493141089       19.6501249199       25.4325991603
  H        20.2588565625       19.7042929722       26.2202912978
  H        20.0463920716       20.8943877341        8.9661953126
  O        20.9133686683       21.1243100487        8.5099661329
  H        21.5887539127       21.5622174889        9.1824027282
  H        19.0421704529       23.5541420260       16.2280212496
  O        19.7552924028       22.7759068050       16.4659432587
  H        19.5817756130       22.4114483486       17.3814589537
  H        19.9013824327       21.7502793004       22.9935842849
  O        20.5511221504       21.1670602475       23.6378753313
  H        21.3346049579       21.7307728302       23.9024797660
  H        20.4116584474       23.6929030882       11.2764888147
  O        21.3013503632       24.1811754191       11.0776971229
  H        21.1227175219       24.8881447649       10.3862950434
  H        20.3261892442       24.0127430818       13.8210961367
  O        21.1903959121       24.5015845579       14.0326692121
  H        21.5676493285       24.7663989067       13.1308606027
  H        21.2540415362       25.0142930784       15.8117432755
  O        21.3090810542       25.3720913346       16.7717332223
  H        21.8928603466       26.1874811154       16.7455337943
  H        20.3541675202       24.3286128840       19.7087361789
  O        21.1989926494       24.0797828455       19.1934105582
  H        21.2343674775       24.5373716468       18.2706135875
  H        22.8189336813       10.1972609942        7.9152071955
  O        23.0752353171        9.0593467113        8.3434837236
  H        23.9012311178        8.9232563049        8.8872487681
  H        22.4882713657       10.0056970209       12.8168572533
  O        23.0598778849        9.3957315890       12.2466716211
  H        23.8192197979       10.0444755775       11.7564901090
  H        23.3893586990        8.3543122495       13.3425288477
  O        23.3895397341        7.6525840931       14.1355373876
  H        23.7890891641        8.0368336691       15.2730197279
  H        23.7819639053        8.2911039203       17.2281156009
  O        24.1748707754        8.5214656277       16.2554361738
  H        24.6473085601        9.4655882518       16.1015395132
  H        22.6727448959        9.0769763421       18.6181983453
  O        23.1793998290        8.2113747691       18.5685820390
  H        23.8250221725        8.1171356632       19.4727265033
  H        23.8863794216        8.6812905352       21.4068890315
  O        24.4416987876        8.0782964481       20.6820374254
  H        25.4308459888        8.1095245995       20.8042146056
  H        21.6941740838       11.4411401021        6.6493752256
  O        22.5142583825       11.2416918738        7.4908775202
  H        22.6836069843       12.0423297868        8.0625422809
  H        21.5827205145       11.3566980364       14.8193428857
  O        22.0850505331       10.4814736634       14.8800080890
  H        23.0264362811       10.6767999230       15.2182882408
  H        23.2296863373        9.6710883232       23.0643607883
  O        23.0671365221        9.5985904050       22.0799394360
  H        23.4744700737       10.5856244427       21.4721970448
  H        21.2207326750       14.1076112947        9.1242287352
  O        21.7417911350       14.4682503956        8.3416632996
  H        22.0145505892       15.4620578370        8.5596258620
  H        21.7047147005       14.1241722135       22.0049482219
  O        22.5070352476       14.6875084974       22.2619162933
  H        22.4299685305       15.6760414019       21.8356287612
  H        22.0012375688       17.2097951110        9.8611417207
  O        22.4040500590       16.9503944856        8.9730647285
  H        22.2357874499       17.7714322459        8.3333944704
  H        21.6709843331       16.8954098831       20.4063524031
  O        22.4025003312       16.9504945646       21.1026680505
  H        22.3053282210       17.9201314306       21.6445758573
  H        21.5050237305       19.9241430194        7.9261684207
  O        22.1263204116       19.1364838137        7.5089484288
  H        23.0860000580       19.5136458098        7.6500555304
  H        21.3535597672       19.1478596420       15.1652415340
  O        22.2895585391       19.5417032247       15.3005353821
  H        22.1443912505       20.5963614145       15.3059648937
  H        21.4011352117       19.5781220129       22.6364205683
  O        22.2345773288       19.1482574684       22.2558311337
  H        22.9216703041       19.9254021713       22.0093082613
  H        23.9005110024       21.1517419563        9.0185646475
  O        24.2865667934       20.3991659939        8.4473873990
  H        24.9982938203       19.9312200990        8.9864639261
  H        22.5992880694       21.3483354723       10.9264847632
  O        22.6956325679       22.0469441096       10.1855537832
  H        22.3482857972       22.9511585219       10.5520441802
  H        20.9786804327       22.3963718666       15.9695472460
  O        21.9620111033       22.1339548497       15.5070190508
  H        22.0247554453       22.7364434830       14.6994461671
  H        23.2399749373       22.0566941815       16.2397499857
  O        24.2088212249       21.9615719581       16.6925922181
  H        24.6973265656       22.8301749691       16.6147726489
  H        22.2351454409       23.2333217618       19.6421995724
  O        23.0741364010       22.5612837457       19.8292907425
  H        23.3587447356       22.1832385906       18.9414709891
  H        23.4429776680       21.7854905316       20.8585326661
  O        23.8404599129       21.0522668881       21.6253445503
  H        24.3534099997       21.5304891755       22.3368709880
  H        24.7751972206       11.7668518728       10.8162724901
  O        24.8372394907       10.9140177142       11.3923262629
  H        25.3300075571       11.1893103946       12.2749967615
  H        25.6996573288       12.8586044238       13.7188421884
  O        25.9937511636       11.7258907830       13.6013604265
  H        26.9819301374       11.6201435611       13.4726060701
  H        25.1105178281       11.5088832393       16.4287790781
  O        25.0527482902       10.8015841951       15.7260919396
  H        25.4996551015       11.1434577405       14.7931324221
  H        23.4635777231       11.6194797346       19.9135507204
  O        23.9495632119       11.4452782922       20.7823336526
  H        24.3516952489       12.4410950359       21.1868211960
  H        23.7875501679       13.4425207049        9.6430863563
  O        24.7160837572       13.3893547342       10.0228564335
  H        25.0073819444       14.3876893252       10.0773413606
  H        24.9957454967       14.7239364332       13.4104228025
  O        25.3895169604       14.0401321031       14.0333187434
  H        25.7623145859       14.4869038686       14.9817894437
  H        25.5455363899       15.7456170537       16.7417121938
  O        26.1540157774       15.0147811181       16.1547917527
  H        26.8901804542       14.6171002511       16.6948247655
  H        23.6918854447       14.1307430394       21.9652609874
  O        24.6214571165       13.6080642710       21.6334596153
  H        25.3165425840       14.2051225737       21.2392245529
  H        24.0955939557       16.3860005851        9.4451378259
  O        24.9443816208       16.0821702111        9.9173224132
  H        25.3374578574       16.9039019865       10.3682844938
  H        23.5519126224       17.2110696694       13.0755417821
  O        24.1698528647       16.7359073936       13.7134021523
  H        24.9181529875       17.4360542258       14.0487469843
  H        24.7002422473       16.6926716740       18.5385931108
  O        24.7259158458       16.6236120787       17.4025380299
  H        24.6798717170       17.5481908652       17.0129894089
  H        23.8052178281       16.8692519057       20.3481448456
  O        24.7209785844       16.9536373106       19.8401866298
  H        25.0065804325       17.9611758233       19.9195625613
  H        24.5390357000       18.8240577000       11.3331967025
  O        25.4934987038       18.5726758547       11.0873338903
  H        26.0102382963       18.6338590000       11.9522958462
  H        25.7820818320       19.0367404999       15.2885280861
  O        25.9497095647       18.3538802242       14.4604158635
  H        26.8610998783       17.9522334163       14.5600859566
  H        24.9930214862       20.7316510563       16.5256481195
  O        25.6115903750       19.8590843240       16.4661830767
  H        26.1039173328       19.7340014605       17.3285736702
  H        24.3222551607       19.6944476329       19.0485542082
  O        25.0522710476       19.5436254600       19.7339490246
  H        24.7640514459       20.1156867935       20.5527268442
