     451
 i =      811, E =     -2585.7120452691
  I        11.4335728798       12.1574286671        8.3880242191
  I        18.6076275986       12.2218880889        8.6182519918
  I        12.5481815360       19.0452812450        8.7074180291
  I        20.0840272023       17.3666016805        8.7021074261
  I        11.4343037852        9.0032366516       11.5817071587
  I        19.5989381828        8.9820908799       11.6218436419
  I         8.3599111846       13.3821214581       11.8795160736
  I        10.5179933739       12.2216465223       14.2044276273
  I        12.4297858781       15.3154858832       11.5755529612
  I        15.2268542105       11.9352329500       11.2073889777
  I        18.6330217848       11.8499204958       14.8744216417
  I        18.2191971119       15.2420248757       11.9928211272
  I        22.1322532855       13.0003664617       11.9080443927
  I         9.5947563251       18.8662210458       12.3819308433
  I        12.8010022251       18.0156026210       15.1590561514
  I        13.0221667823       21.6275994652       12.6406349171
  I        16.1717013196       18.7854883910       11.6385756661
  I        19.4082898126       18.3944383615       14.9387239334
  I        19.2685828066       22.4341322624       12.3938422752
  I        22.3876186513       18.1988774481       11.2181383944
  I        13.7107837579        6.1580188107       17.4703054137
  I        18.3037846891        8.2537763734       18.2146449875
  I         9.8254578135       11.0600605290       18.1151067932
  I        13.7908964011       11.4320398619       21.0909755572
  I        12.3690338951       15.0451717798       18.6882809532
  I        15.3705788796       11.6634857653       16.7763060343
  I        18.7356703172       11.8145676116       21.6450183445
  I        18.7593920747       15.1862412211       18.5439732025
  I        21.8346533189       11.7062634773       18.1369406320
  I         9.7262086144       18.8237876408       18.3671946120
  I        13.2667168275       18.6778490604       20.9000161244
  I        12.2216414607       23.0544268083       17.6931628517
  I        15.8919950249       18.1689916579       17.5194032468
  I        18.5297992385       18.6378935920       21.9523594853
  I        18.0486446464       21.8546672198       18.7523916774
  I        21.9558913135       18.4409602499       18.7983417449
 Pb        12.1735988148       12.0753660437       11.3527282494
 Pb        19.1508406030       12.2904477483       11.7903201519
 Pb        12.6565607215       18.6276103574       11.8838429184
 Pb        19.2040061610       19.2059768469       11.9816165671
 Pb        12.7602787905       12.0460121453       18.3772241297
 Pb        18.8890941047       12.0783078832       18.5998791295
 Pb        12.7079588894       19.6937028648       18.0584907319
 Pb        18.7266494764       18.6976104551       18.9090813630
  C        15.2432825197       15.3454026382        8.5516190416
  C        15.3494928798        8.9376588352       13.6493023554
  C         9.1794840772       15.6472047332       15.6163283664
  C        15.5599147491       15.1099950729       14.8428749148
  C        21.6235371387       14.9923095183       15.7359176481
  C        15.9298643236       21.2590115513       14.9993869064
  C        15.6027949642       15.1285466164       21.0522237879
  N        16.7942564336       15.3319172867        8.7557643095
  N        16.4281067231        8.8292992923       14.7646719780
  N        10.7061433506       15.3322131397       15.6204957331
  N        17.0240509790       15.1141533606       15.3990244172
  N        23.1727316934       14.9033323857       15.7380158324
  N        17.4419735993       21.2743412507       15.4014174351
  N        16.4425342713       15.6458899569       22.2571183209
  H        15.0491838895       15.0758447492        7.5415952290
  H        14.8913834168       16.3266949287        8.7710744797
  H        14.8277621131       14.6363727613        9.2279034114
  H        17.2659632976       16.0483668454        8.1697734682
  H        17.1892796334       14.3966931991        8.5004722241
  H        17.0543036310       15.5015083743        9.7627513630
  H        15.8425851131        9.0284794961       12.7135347690
  H        14.7426121508        9.7877008182       13.8326061514
  H        14.7643113103        8.0523387204       13.6696483561
  H        16.9456624518        9.7164089847       14.8485798219
  H        17.1583969895        7.9695791081       14.5405543193
  H        15.9741286338        8.6070543996       15.6597906528
  H         8.8773376787       15.7213658240       14.6020525713
  H         9.0206733557       16.5565045954       16.1438931568
  H         8.6731265277       14.8417012331       16.0908581558
  H        11.2615305623       16.1302193022       15.2224108130
  H        10.8714410191       14.4532315244       15.0680414632
  H        11.0645028751       15.1869060461       16.5954479277
  H        15.6145749358       14.9448977597       13.7933414049
  H        15.1269198958       16.0557029685       15.0589988274
  H        15.0419086590       14.3214508611       15.3301957460
  H        17.5910092146       15.8424886331       14.9178648494
  H        17.4810508473       14.1875520530       15.2256922171
  H        17.0538361160       15.3041954144       16.4248303854
  H        21.2708200409       14.6313188702       14.8018316017
  H        21.3491365881       16.0093300875       15.8692405338
  H        21.2454691211       14.4005869688       16.5301227126
  H        23.5548212301       15.4988628897       14.9087531296
  H        23.5395567357       13.9136372384       15.5758359734
  H        23.5590832156       15.2432542270       16.6303083380
  H        15.8652705899       21.0864488733       13.9537168817
  H        15.5078074239       22.1965921332       15.2567077352
  H        15.4610449037       20.4672883336       15.5315087514
  H        17.9602816082       21.9572259192       14.8135450286
  H        17.8825137025       20.3334292536       15.2557527284
  H        17.5732927721       21.5285895107       16.4161599082
  H        16.2599361593       14.7342378147       20.3181702837
  H        15.0545426314       15.9464813953       20.6547370246
  H        14.9450947205       14.3760477331       21.4057369765
  H        17.0567129667       16.4253131019       21.9633572894
  H        17.0355799151       14.8878707120       22.6208822290
  H        15.7453480352       16.0393298542       23.0882599798
  H         7.0047222115       11.1870248036       13.5438292722
  O         7.0604761068       10.5840799063       14.3368774003
  H         6.8039621516       11.0685123748       15.3768709408
  H         5.9010529254       10.9712039399       17.0225389353
  O         6.5004054626       11.5493530111       16.4748934028
  H         6.4660813071       12.6898173995       16.7213533980
  H         6.3670726780       11.8192327596       20.1109683871
  O         7.1673908582       11.2321585318       20.2590082981
  H         7.7719127512       11.2908101952       19.4445507808
  H         7.0391359782       15.5169400300       10.3128077893
  O         7.1704114134       14.2477659797       10.1356400915
  H         7.9114157365       14.2414410975        9.2935412620
  H         6.2539644318       16.2736956287       14.5171848179
  O         5.9915912840       15.2781222264       14.7397507644
  H         5.6857907111       14.8220949265       13.9044780250
  H         6.1965120849       14.5043441797       16.0050945915
  O         6.3994903609       13.9363208691       16.8771672162
  H         6.6869702116       14.5418234071       17.6746230749
  H         6.6412784891       17.4094183706       10.8870658582
  O         7.1360194887       16.6731891904       10.2572609969
  H         7.9844587924       16.9442167700        9.6951708375
  H         6.5120592647       18.5284201156       14.8900916686
  O         6.7389425566       17.7086821315       14.1421226813
  H         7.7325655039       17.7419854857       13.9601515863
  H         6.8615661498       16.4372412111       19.1287694297
  O         7.2320731442       15.5633205108       18.7200898363
  H         8.1199483935       15.3818083880       19.1482258352
  H         6.2358560394       18.0828182000       12.8029815453
  O         6.0291137750       18.2906054682       11.7709042701
  H         5.9083267215       19.2646016068       11.5912505976
  H         5.4792302258       19.5011029031       16.3129039634
  O         6.2842002572       19.5390616006       15.7250374308
  H         6.9988489796       20.3088310566       16.0417979063
  H         6.0227928761       18.3819685849       20.4932419456
  O         6.6303389354       17.9262244339       19.8376021260
  H         7.4293472061       18.5261823478       19.6642551004
  H         9.2393570676        9.4201283238        7.9526263660
  O         9.3310915523        8.4789627950        8.2938097750
  H         9.8800643561        8.5563673283        9.1358657109
  H         7.8007027328        9.6711769101       14.2081870863
  O         8.6172595592        8.7427663105       14.1323273601
  H         9.3571826039        8.9034177468       13.4691735731
  H         8.9873503345        8.4148801773       15.1411901088
  O         9.3924491646        8.0912760221       16.3582015356
  H         9.6550408294        8.8796669748       16.9304034154
  H         9.6590720797        8.1614204094       19.8898485394
  O        10.3787855900        7.7722750547       20.4662984710
  H        10.6805465231        8.6618718377       21.6081545896
  H         8.2363486197       11.1760971981       21.5433125642
  O         9.0559455239       11.2237858789       22.1611043750
  H         9.5340539311       12.1618704795       22.1027555402
  H         9.0690682811       15.6032105395        8.3783375081
  O         8.8376718463       14.5700928085        8.3331780369
  H         9.6525483368       13.9775729983        8.2541652228
  H        10.2134608440       14.4097202145       21.8706047572
  O        10.3786548686       13.3963963852       21.9474278828
  H        11.3513871738       13.2054578954       21.7941385864
  H         8.9690388105       18.0165329380        8.2145173025
  O         9.1832105044       17.0682220903        8.7680226881
  H        10.0105926772       17.2257532197        9.3196952981
  H         9.4601823948       16.7926827990       21.7842152284
  O        10.1598652552       16.0888883655       21.6290270060
  H        10.8611706141       16.4814065801       21.0152022240
  H         7.7947361455       19.3734937072        7.2383957131
  O         8.6795192676       19.2318984250        7.6786074595
  H         9.0888393824       20.1595337206        8.0948316376
  H         9.5571186975       22.5248849353       11.6318769977
  O        10.2087782803       22.4861619501       10.8076532339
  H        11.0072439570       21.9597291253       11.1567875233
  H         9.0908335505       22.7789018185       13.9678129032
  O         8.8358033969       22.3380525276       13.0887163435
  H         8.8842729835       21.3348177859       13.2294634450
  H         8.3925699321       22.0482132951       16.2809817407
  O         7.9503988175       21.1553276145       16.5688394378
  H         8.5748286701       20.6320531355       17.1734238901
  H         8.2343637488       21.9688600656       22.7586724914
  O         8.4527139440       21.5293234668       21.8856905519
  H         9.3095817043       21.9655761452       21.5541902958
  H         9.8823627125        5.8921152860       13.7678486777
  O        10.7562813686        5.5340119745       14.1016878399
  H        10.7737836426        5.5721458708       15.1563772398
  H         9.9954681321        7.2094802644       16.5221615018
  O        10.6965637615        5.9370721032       16.6732834374
  H        11.0034629836        5.8331906980       17.8480770674
  H        10.9015031501        7.0415757873       19.9089715863
  O        11.4856355532        5.9342615505       18.9924678567
  H        11.6439236443        5.0503061641       19.4497228293
  H         9.8866737216       10.2294600510       22.2846665505
  O        10.6880590340        9.4063169265       22.3721876837
  H        11.5182130319        9.6098852886       23.0269087944
  H        12.1893653057        9.6417878005       24.9772097654
  O        12.4766234077        9.9330549414       24.0653966682
  H        13.2075761384       10.7008494315       24.1739664168
  H        11.7603190769       13.0279919918        5.2278415707
  O        12.6932510433       13.3874773933        5.2754688569
  H        12.6570508838       14.4083112830        5.5431987312
  H        12.3158961969       16.7547781323        5.5529990090
  O        12.5813994991       15.8714706317        6.0219811445
  H        12.5233567644       16.0364055049        7.0101502470
  H        12.0116100972       16.9932889414       23.7158609669
  O        12.7398444841       17.4320636961       24.2435951264
  H        12.5803279996       18.5458444386       24.2801307648
  H        11.0402102944       18.6961317693        5.5327606676
  O        11.9190859207       18.3545732777        5.1739300535
  H        12.6367621870       18.9646062444        5.5336667993
  H        11.9818743837       20.1758728233       25.2487284656
  O        12.3627233358       19.8634860287       24.3820705039
  H        12.5016625128       20.7118975373       23.6735904237
  H         9.7940958646       21.8126964216        9.4499244341
  O         9.8302201642       21.2638262814        8.5482588399
  H        10.7749470175       20.9045471605        8.4810787537
  H        11.9593013085       22.1546121286       22.2854749532
  O        12.6934102766       21.8085444811       22.8951224100
  H        13.6261969975       21.9048979113       22.3985670005
  H        11.2125246340       24.0231607471       11.1467091733
  O        11.8054546388       24.8247601827       11.3943279221
  H        11.6425935711       25.5451687965       10.7175373070
  H         8.9016481350       24.2395686326       16.1014610094
  O         9.2755208401       23.3219341357       15.9340244097
  H        10.2030950682       23.2584071534       16.3871029626
  H        10.8682898164       24.0265816416       21.2522265980
  O        10.8574123318       23.0393201020       21.0645677033
  H        11.2096840261       22.9231100764       20.1132397475
  H        11.8585112294        5.4417508652       13.2296520416
  O        12.7020232863        5.4001179185       12.5536562268
  H        12.5165212015        5.8870078314       11.7001649604
  H        13.9613819927        5.4352868388       13.0262217136
  O        15.0109169064        5.5059514425       13.4048106894
  H        15.9219275503        5.7672015769       12.7047054507
  H        15.1416015692        5.6744437535       14.4202172437
  O        15.4487911752        6.1537201119       15.9395707212
  H        16.1926222014        5.6717244700       16.4363972137
  H        13.1765177729        8.5559001158        9.7839222091
  O        14.0187721586        8.3167186029        9.2842600059
  H        14.2900283047        9.0862403508        8.6258331844
  H        15.1922930493        7.8427309735        9.9505501739
  O        16.2270452692        7.6663876752       10.2291311979
  H        16.8092517606        8.0540262783        9.4081096911
  H        15.0655737316        8.8218255394       21.0251235655
  O        15.3374473866        7.9913531985       21.5288581318
  H        14.7192999290        7.9237279213       22.3179110568
  H        13.6918761705       12.3644614512        5.6647097944
  O        14.4187756519       11.6056866914        5.8702162321
  H        14.9444071832       11.3906960354        5.0488193216
  H        14.7466182559       10.8426002006        7.0196300121
  O        15.0911484772       10.2969553226        7.9045873251
  H        15.1902415425       10.9609247358        8.6573210857
  H        14.1771467226       14.2867367112       26.1325649652
  O        14.5695290381       14.1469490287       25.2235254363
  H        14.8041988112       15.0980525154       24.8302105028
  H        13.9331312429       16.9059416275       24.1323900858
  O        15.0139925912       16.5176455696       24.1666073762
  H        15.5282985678       17.3296797613       24.5302218841
  H        15.9655482787       20.4500938079        7.9828005029
  O        16.6775471767       19.5448772584        7.8118697217
  H        17.4986376771       19.7109126135        8.3723693760
  H        15.3894011578       19.6913838696       24.4512046116
  O        16.1115240504       19.0023373479       24.5843384737
  H        16.8264728838       19.1762447598       23.8891677497
  H        14.2788096100       21.1208074127        8.2549423204
  O        15.2216749666       21.4744235926        8.2300613416
  H        15.4029627924       22.0736702648        9.1658492273
  H        15.0626168594       22.1880888898       11.0698367964
  O        15.5661749309       22.6756480725       10.3464092988
  H        15.8235839364       23.6650768799       10.7128056661
  H        15.2557728692       22.8846921403       21.1764850356
  O        14.9053875930       22.0220155719       21.6278991073
  H        15.1702716292       21.2226746001       21.0812791831
  H        13.0957980218       24.9603947027       12.3998033641
  O        14.0062420273       25.1555924437       12.8624111027
  H        14.0410230770       24.9677168877       13.8579575004
  H        13.9942782520       24.2908303471       16.1851924543
  O        14.5660456564       24.9304469884       15.6237571108
  H        14.4093054994       25.8492239047       16.0044395886
  H        16.2860554924       24.9869796156       20.8220898219
  O        15.9006910818       24.1795639876       20.3659385670
  H        16.6125892884       23.7768159127       19.7630887207
  H        16.5867162920        6.9717854726       11.0536205822
  O        16.9194595085        6.1211135948       12.0176163087
  H        17.3765015780        5.3388463236       11.5889962260
  H        17.7326681228        6.5652439783       13.2705023090
  O        17.9884461393        6.9090170058       14.2388780075
  H        18.9838787553        7.0006401036       14.4402039555
  H        16.6619378198        6.8934766233       21.2513828369
  O        17.5497083207        6.3742065724       21.2140247866
  H        18.2527052035        7.0106682984       21.6092982254
  H        16.3074902261        9.3978190753        7.9127677958
  O        17.1144226663        8.7431025352        8.1285285988
  H        17.9690279729        9.2395559668        7.9813124231
  H        19.0712790576        9.1809798937       21.8949886290
  O        19.3486774283        8.2550744312       22.2051275709
  H        19.6121942189        8.3591064562       23.1709125641
  H        18.0488958379       13.1878854192        5.7532465907
  O        18.5535212340       12.0912794163        6.0121891159
  H        19.6188442182       12.1047994539        5.9675880503
  H        14.3982053249       12.6908854633       24.7278405078
  O        14.3515583391       11.6624903494       24.4815077534
  H        15.2671592102       11.3707271780       24.1997689035
  H        16.8143638646       14.1898884963        4.8022859468
  O        17.5406920165       14.2482114009        5.4820622795
  H        18.0341873623       15.3481287290        5.6256365767
  H        16.9571331474       19.0884532703        6.7460151998
  O        17.3322036315       18.5694293216        5.6933588944
  H        17.5868208058       19.1718808331        4.9411569684
  H        17.6282234261       22.1797110861        8.3936810064
  O        18.4307410215       21.7013184930        8.7661230305
  H        18.4850376355       21.9710246009        9.7380155780
  H        15.1569174746       25.0820486011       12.0573840755
  O        16.0061354377       24.9396092525       11.3923436221
  H        16.1706777679       25.7588895067       10.8465300346
  H        16.5225467699       24.6765151594       15.3800956303
  O        17.5050421811       24.5312305802       15.1444415222
  H        17.5711905051       24.5556736335       14.1387941157
  H        18.9984452498       24.7824298047       16.0101101292
  O        19.9723978013       24.8261372074       16.3527779229
  H        20.5781865294       25.1206344718       15.5681250646
  H        21.4969697873        8.1776810093        9.3754967930
  O        21.4635065227        7.3747490314       10.1821349513
  H        22.2049751764        7.6169803568       10.8541750736
  H        20.3730148942        7.4870587653       16.3579077109
  O        20.1941005651        7.2357615074       17.7367240148
  H        20.7857418631        7.1301476730       18.8327021789
  H        20.5943639692        6.8562098593       20.6374047043
  O        21.3008931736        7.0289602065       19.9400162563
  H        22.0256759127        7.8502764304       20.3147829557
  H        20.7104312133        9.5709616961        8.1722195910
  O        21.5728517546        9.2060448808        8.5219793556
  H        22.3718176459        9.9298048318        8.4482652195
  H        20.0403271383        8.7160526711       15.2524457142
  O        20.4140576169        7.7822958257       15.2995873941
  H        21.7446123638        7.9275065655       14.7216896438
  H        21.6336508623       12.6837927890        6.8282863136
  O        21.1497411134       12.1675641870        6.0692926342
  H        21.8046042760       11.6082639906        5.5611660047
  H        20.5967673835       12.0505377880       24.7648783049
  O        20.8077479951       11.0580192134       24.6723474891
  H        21.5799524400       10.9889782906       24.0299269160
  H        19.8228179131       14.2790908171       25.6801744512
  O        20.3682838991       13.8695658000       24.9417889453
  H        20.9119579208       14.6099261748       24.5318705214
  H        17.8981224914       17.5465674124        5.7214652768
  O        18.4951742808       16.4407756418        5.8164693439
  H        19.4886612593       16.4869821844        5.7316182822
  H        20.6046807692       19.6089048604        6.8390953631
  O        21.4662490422       19.8089228458        6.3606339302
  H        22.0185399744       20.4152915512        7.0070629265
  H        20.0402462752       19.7978381696       24.5064659473
  O        20.7462427831       19.1080852111       24.6959117292
  H        21.4713151239       19.1640453862       23.9068587868
  H        20.6534793908       23.2230453242       16.1979154477
  O        21.1895715577       22.3538945989       16.1524081377
  H        21.6237254850       22.1317522138       17.1335022940
  H        20.0783701858       22.4131619449       20.4946857188
  O        20.9692257386       22.8887450511       20.4646271638
  H        20.8183684132       23.7785044666       19.8673448914
  H        20.9032346385       24.1365501354       11.0296157221
  O        21.8494864883       24.5005685909       10.9735053223
  H        21.9019156746       25.1002430156       10.1681026337
  H        21.0338152410       24.1166816361       13.6556419178
  O        21.4084524070       24.9303838366       14.1318262241
  H        21.9201591012       25.4553263905       13.4445493488
  H        20.3479758372       24.8100502117       17.8711817393
  O        20.6444365677       24.8418282858       18.8862073251
  H        21.0305747050       25.7436305912       19.0796398226
  H        22.2354785383        9.5326905859       11.8479416538
  O        23.0693015545        8.9657319227       11.9218730839
  H        23.8468096681        9.5397084519       11.5711857634
  H        22.9379195910        8.3943404419       13.4600776142
  O        22.7416042502        8.2026271527       14.4512004846
  H        23.4653869252        8.5325443381       15.3973905535
  H        23.6618617266        8.5569255181       17.2224508560
  O        24.0682699104        8.8520428145       16.3603910874
  H        24.7939510664        9.8064744130       16.4575625055
  H        22.5908762194        9.7337700361       21.2480441837
  O        22.8544942328        8.7408121935       20.7902858824
  H        23.6655676915        8.3522889668       21.2267814238
  H        23.1360020308       11.9066694191        8.2963110561
  O        23.4040075244       10.9140880491        8.4457095040
  H        24.0312979655       10.8493956086        9.2427491348
  H        23.6789026886       12.0530289002       14.5534011247
  O        24.3894675442       12.6230648380       14.9794600602
  H        24.9284094466       13.1333177727       14.1814614838
  H        21.2996969489       11.1078815690       21.7694491622
  O        22.2889625620       10.9110014812       21.8416764937
  H        22.8221796141       11.8386424606       21.6529631325
  H        21.7951805968       13.4308626170        8.9305458944
  O        22.4036323906       13.3857889144        8.1269581500
  H        22.8128151356       14.3503982021        8.0157620874
  H        22.6947810126       13.8657068081       21.2419563367
  O        23.3971830468       13.1723681462       21.4167609582
  H        24.2418195586       13.3814683427       20.8009950866
  H        22.3850961294       16.4530677980        8.2932709661
  O        23.1784084851       15.8719377472        8.0167852937
  H        23.6967288452       16.3681181168        7.3145076369
  H        22.8777355628       19.2689414953       16.0879567779
  O        23.5104296572       19.6435817605       15.4063713469
  H        23.1263589912       20.6449477382       14.8217399249
  H        22.1397483065       18.8116123350       21.9609261030
  O        22.4074730672       19.3254201536       22.7807332656
  H        22.5469860620       20.3376129304       22.5143368028
  H        22.8989070113       21.5179828621        8.9907543224
  O        22.9130592931       21.3167698587        7.9706587195
  H        23.7765762985       21.6463179478        7.5907048236
  H        22.4597402808       21.3103985374       11.1858479601
  O        22.9567445815       21.9198887667       10.5568011278
  H        22.6762648561       22.8829645784       10.7669887962
  H        21.9043018766       22.0730648268       15.1866257782
  O        22.6815250397       21.6748518762       14.3725416420
  H        23.3695051965       22.3463579947       14.1018791442
  H        22.3419068677       20.8599205341       18.5077180544
  O        22.2172288725       21.8576459164       18.3721595621
  H        21.7818827760       22.2484168417       19.2370789381
  H        21.9837785661       22.3189413030       21.5085024063
  O        22.6300488866       21.8153355767       22.1612956855
  H        23.0187320678       22.4579414310       22.8200195838
  H        24.2163580785       11.7134161720       11.3493143518
  O        24.7271765730       10.9095261778       10.9764724996
  H        25.7094914596       11.0502197371       11.1400085803
  H        25.1183995595       11.6101656330       16.0247930140
  O        25.4651276314       10.8294063152       16.6186371607
  H        25.5471286351       11.0539748180       17.6811558357
  H        24.6987995481       10.7491528675       19.4887008766
  O        25.4921630780       11.2226391946       19.0976132713
  H        25.5457158587       12.2154261167       19.5004632556
  H        24.9066310827       14.9941424757       13.3060143356
  O        25.3938365088       14.0390048638       13.1874691109
  H        26.2072650628       14.1506742037       12.6177717997
  H        25.6030239467       15.9246270099       17.5597147498
  O        25.6125524557       14.7830859275       17.8250608209
  H        26.1043076805       14.2243225262       17.1593076376
  H        25.5278564887       14.2256446415       18.9482811674
  O        25.4989444772       13.6038251512       19.9527601686
  H        26.2495504482       13.8786631627       20.5543319723
  H        25.1210706557       16.3680667192       10.3022860644
  O        25.9367098119       16.5216423210       10.8680919382
  H        25.9900449471       17.5256607606       11.0209582532
  H        23.5582797660       16.5141705662       12.9812714717
  O        24.1722159665       16.1938459634       13.7129181443
  H        24.7378280903       17.0726964858       14.1810753623
  H        25.5506655254       17.8500841801       17.9756505510
  O        25.5356417580       17.1273725652       17.2376917291
  H        25.5011004610       17.5154921559       16.2386788709
  H        24.7342990662       19.5951614365       11.1343533800
  O        25.7192839554       19.4337572139       11.2887753310
  H        26.2114562152       20.2265992875       10.9188061983
  H        24.3547533573       18.9281793177       15.1239155908
  O        25.2854664170       18.0353574525       14.8760516270
  H        26.0837148896       18.4198787942       14.4079890141
  H        24.3486911240       18.9542558974       19.3770019081
  O        25.3331094801       18.9238463441       19.1320001255
  H        25.8663261493       19.4726918721       19.7792333952
