     217
 i =      361, E =     -1245.2902587755
  I        11.5855934071       12.1291320006        8.7633939901
  I        18.8146735740       12.5339586327        9.0237804876
  I        12.4676246830       19.5894197205        8.7602734032
  I        17.8050266436       18.4636580925        9.0904666438
  I        11.5696489839        8.7976427893       12.4935220653
  I        18.6708334495        9.1818102668       12.0878459050
  I         8.7620284490       12.8844744945       12.1749198082
  I        11.8694023302       11.1890179227       14.6907645179
  I        12.3064104781       15.5737970117       12.2964893146
  I        14.9759920032       12.2132561640       11.5315589868
  I        18.3845276820       12.1596815723       15.3073009805
  I        18.3000131959       15.3493338210       12.3604717578
  I        22.1436508425       12.2796143980       12.5604224422
  I         8.9756253960       18.6783616488       11.9021946435
  I        12.0734000617       18.4844694148       15.6934860450
  I        11.9034253915       22.2311377354       12.6995681868
  I        14.7143007453       18.7286670030       13.1226189105
  I        17.9291251242       18.5874302168       15.4513089237
  I        18.4585033369       21.7802029726       12.1558963091
  I        21.6899098513       18.5385732881       12.0014687576
  I        11.9305567389        9.5686876678       17.9229343377
  I        18.8218634309        9.2629129189       18.7209942977
  I         9.7007597643       13.3383885152       18.4330176029
  I        13.0580572038       11.8638841798       21.7849652189
  I        13.3527558574       15.5998419461       18.7236853752
  I        15.3128989802       12.1343132543       17.4555996173
  I        19.3748029631       12.2162409646       21.9236819658
  I        18.3202014343       15.4655431809       18.6895621830
  I        22.3370050220       12.4647169511       18.2879100579
  I        10.0104056817       18.8258518293       17.8755863862
  I        13.2730123358       17.6875757463       23.1797221163
  I        12.5440221338       21.6847501847       21.0806422969
  I        15.8085575468       19.5389861147       19.2219711369
  I        19.4981563053       18.6478843632       21.6747424469
  I        19.6066386041       21.7062253836       18.3504972612
  I        21.9956807245       17.9620766129       18.1688590613
 Pb        11.9024651024       12.6650106790       11.7437788471
 Pb        19.1869578109       12.1982533920       12.0776533987
 Pb        11.9395237066       19.4364606753       11.7085397022
 Pb        18.6956776623       18.6680308810       12.1098968579
 Pb        12.6524801202       12.5754413834       18.9408857026
 Pb        19.3886667340       12.3914097356       18.8837624330
 Pb        13.0341641254       18.7198167020       20.3462426435
 Pb        19.1309502047       18.6592986965       18.6454480368
  C        15.2327020472       15.2013076046        8.2184939733
  C        15.2128763969        9.0658403532       14.5461397435
  C         8.7591347897       15.6377814214       14.9937823483
  C        15.1874780706       15.2199678221       14.8681649164
  C        21.7701201087       15.5517065197       15.0806812006
  C        15.6678660476       22.2601927264       15.6171239281
  C        16.0904691076       15.1710682028       21.9528076754
  N        16.4596274765       15.2166653430        9.1849481360
  N        16.3335634077        9.0764768475       15.6207731329
  N        10.1777975444       15.2138183798       15.5060646918
  N        16.5531760556       15.2299960413       15.6274943971
  N        23.1649902878       15.0996978036       15.6132836905
  N        17.2156430953       22.4378435030       15.5077772892
  N        17.5596513443       15.4371298362       22.3738470593
  H        15.6094213481       15.2764126985        7.2259425141
  H        14.6144321510       16.0312186293        8.4617118187
  H        14.7165439980       14.2829260667        8.3639873471
  H        16.9518324087       16.1484895776        9.1379006551
  H        17.1482904078       14.4596947615        8.9386765833
  H        16.1685111416       15.0538764141       10.1674812460
  H        15.6211249722        8.6801976442       13.6454132010
  H        14.8663566109       10.0579339073       14.3957423342
  H        14.4232533673        8.4507622211       14.8984143561
  H        17.0912310454        9.7180141085       15.3355497562
  H        16.7574520427        8.0428379755       15.7721026726
  H        15.9582842471        9.4255130096       16.5151444431
  H         8.8875420730       16.1684160730       14.0814655179
  H         8.3133314146       16.2373503925       15.7510445782
  H         8.2015373053       14.7457196267       14.8387357352
  H        10.7706226461       16.0549657333       15.6753514958
  H        10.6465862078       14.6273129382       14.7910809812
  H        10.0857123894       14.6619009648       16.4025699300
  H        15.3915846720       15.3612509198       13.8359973185
  H        14.6045514354       16.0203867928       15.2520609144
  H        14.7273133247       14.2798410390       15.0437856133
  H        17.0601287780       16.1294703382       15.4495388003
  H        17.1574061494       14.4253276505       15.3354620099
  H        16.4067772392       15.1533680406       16.6544843293
  H        21.9193277159       16.2475885220       14.2919321239
  H        21.2534006862       16.0174404681       15.8825859419
  H        21.2441661293       14.6992570358       14.7304381892
  H        23.7894891740       15.9823601013       15.9585596980
  H        23.6777702702       14.5950585943       14.8758788797
  H        23.0260269528       14.4476554248       16.4060231832
  H        15.3862117142       21.4148404233       15.0368914329
  H        15.1954749555       23.1384100779       15.2476591852
  H        15.4175561060       22.1005582534       16.6373708717
  H        17.5051518331       22.3901370499       14.5096459942
  H        17.6910273242       21.6602717622       15.9975357411
  H        17.5745218361       23.3844411520       15.9500196174
  H        16.0742151034       14.6194501282       21.0463790235
  H        15.6133634899       16.1092356169       21.8199074089
  H        15.6150536311       14.6289135569       22.7301260667
  H        18.0401344296       15.9900630767       21.6482243109
  H        18.0688552749       14.5425947333       22.4734204513
  H        17.6064946842       16.0393341983       23.3455524766
  H         5.7133824048       11.3748087875        9.8702639658
  O         6.6173770382       11.0273461073       10.1366507133
  H         7.0054543182       11.5926993114       10.8953092135
  H         6.4817611872       15.5152177735       17.5732176201
  O         6.5135773371       14.5790248182       18.0401419514
  H         6.3567350158       14.7174684843       19.0236685329
  H         6.3768462438       17.4299944506       16.0161494840
  O         6.5380402531       17.0026496909       16.9426579181
  H         6.7869243039       17.7422036963       17.5742452533
  H         5.6161783476       18.7142349330       14.1455481819
  O         6.4023645709       18.2455408382       14.5584261065
  H         7.2137777229       18.4276346034       13.9800034856
  H         8.0621884208        7.5038439251       10.4991585416
  O         8.8873675066        7.9467906135       10.1584829623
  H         8.7726992345        8.9156939488        9.5650973776
  H         8.4624458084        8.8066376745       21.3705738881
  O         8.9950784304        8.3637110255       22.0989107426
  H         9.8934436500        8.8133283075       22.1089798944
  H         7.7471699140       10.5275415280        9.3297298687
  O         8.6141620685       10.0424937458        8.9666745634
  H         9.3982472362       10.6602873433        8.8090728867
  H         8.6689741040       20.3566735518       20.0632893515
  O         8.3902393102       19.3272605541       19.9461229067
  H         8.7633406316       18.8079356947       20.7273171035
  H         8.5558226702       21.7610307838        9.1000538973
  O         9.0016856482       22.1669610545        8.2952489866
  H         9.8659584081       21.6621768256        8.1810365321
  H         8.8563218762       22.5987989276       19.8737592734
  O         9.2193893712       21.7355565452       20.2307505114
  H        10.2140946027       21.8394899377       20.4513663300
  H         9.9689005481        7.5772445153       10.5088623353
  O        11.1537568290        7.3434645578       10.7577804104
  H        11.6656149541        7.7329444623        9.9102813470
  H        11.6667685311        8.1644657683        7.6443907674
  O        12.0326179797        8.4234880715        8.5445547610
  H        12.4027713705        9.3614894746        8.4827669234
  H        10.8593490868       11.4021703059        5.0102330568
  O        11.5908790122       10.9027458423        5.4852058616
  H        12.4403262022       11.4179222370        5.3307308816
  H        11.4254119749       13.7892322980       24.7405216015
  O        12.4177984046       13.8561229883       24.8870693409
  H        12.7322329231       14.7382933637       24.5115220336
  H        11.6678455696       25.3216843095       13.6345615413
  O        12.5826797447       24.9429623599       13.8221832456
  H        13.1729504388       25.0789266257       12.9749621239
  H        13.8595938919        6.1071243900       17.4684394070
  O        14.8569893321        6.1851913138       17.5596813044
  H        15.0466628011        6.4349963362       18.5150278331
  H        13.1988796024       12.4306634161       24.8692982801
  O        13.6315361261       11.4848049499       24.7832104845
  H        14.6323845227       11.5940426952       24.7470775167
  H        14.4076012259       18.5138492823        5.7624902832
  O        15.2930203457       18.2885871307        6.1802752553
  H        15.3890656684       18.8252093985        7.0287942060
  H        13.7535274066       24.1163634429       11.1189665948
  O        13.9648770432       24.9903137568       11.5733124298
  H        14.8461177471       25.3304068065       11.2336548291
  H        16.6219878200        6.1171108337       16.4205272644
  O        17.2606633941        6.7536033879       15.9691219176
  H        18.0223551961        6.3288715059       15.4100061211
  H        16.5272229304       17.3262363832        5.6831392319
  O        17.3876510313       16.7867767700        5.4929995231
  H        18.1488760434       17.4354707311        5.4363621336
  H        16.0561868139       19.3873497082       25.0376968779
  O        16.8743820958       19.2165273842       24.4870021181
  H        16.9083508954       19.9042733679       23.6883672674
  H        16.2581537044       20.8807226450       21.7874014625
  O        16.9964571974       20.8354706273       22.4726462139
  H        17.8449007760       20.5484283897       21.9955785224
  H        17.0548514865       25.3384947322       19.6768341219
  O        17.7734157276       24.9300250812       19.1058037363
  H        18.1634198449       24.1287772736       19.5812234616
  H        19.3599805146        6.7638763084       13.6553262570
  O        19.2072424347        6.0472127204       14.3506483051
  H        20.0656084121        5.5483591354       14.4967412031
  H        19.8225188029        9.2166708352       21.8188989829
  O        20.1383791154        8.2747773026       21.6075210618
  H        21.0099786795        8.3534796840       21.0259833753
  H        17.7157722821       15.2179161435        5.4641791297
  O        17.9347731168       14.1979465043        5.5098557604
  H        18.9156140354       14.0811403496        5.3296326987
  H        17.3331489125       17.8742845678       24.4644316007
  O        17.6645038336       16.8390435229       24.4830211708
  H        18.3783047854       16.7066169312       25.1684019098
  H        19.4883895477       20.5590662807        8.7789239773
  O        20.3014642631       21.1552714211        8.8652517528
  H        20.1486561863       21.7426639625        9.6692719497
  H        17.9328953747       24.8230729929       17.5709030983
  O        18.1056969683       24.6177541513       16.5627062626
  H        18.9107504603       25.1150660415       16.2410199922
  H        21.8112651229        8.4792059724        8.4903341135
  O        22.7910168788        8.3672208029        8.2925721373
  H        23.2226558271        9.2504573312        8.4969590401
  H        21.8044853498        8.6996130972       19.0273248343
  O        22.1918196060        8.5341334896       19.9431637594
  H        23.0041950542        9.1192077098       20.0491269548
  H        21.8245464895       17.4340128641       22.2097518015
  O        22.6264556833       16.8415543190       22.0479897789
  H        22.6984051205       16.7745759852       21.0459272422
  H        21.6921773058       20.3746411491        8.4984940244
  O        22.5161352459       19.7552366141        8.3408039945
  H        22.5673029004       19.1568075960        9.1521026243
  H        22.3698870080       20.9947506880       17.4615687023
  O        23.0651717156       21.2671207077       16.7780595315
  H        22.6652347260       21.9777339840       16.1925684153
  H        25.3242006623       11.0422803120       13.0887755622
  O        25.4984378378       11.8844339786       13.6075805820
  H        25.5348104523       12.6591291276       12.9301921265
  H        24.3399504215       13.9850482872       11.4466695752
  O        25.2761358937       13.9284966237       11.8144119190
  H        25.8741268488       14.5203645477       11.2663507257
  H        24.6649640937       18.0633037511       16.1866616661
  O        24.6510513087       17.0002685194       16.4052674138
  H        25.1234143428       16.8470714802       17.2733534156
  H        24.0898931690       20.1918146951       16.3098454176
  O        24.7739887886       19.4719591766       15.9753119987
  H        25.3399544921       19.8373458282       15.2382695057
