     334
 i =      860, E =     -1915.4106707216
  I        13.3926919878       11.7935505272        8.4041783977
  I        19.2619671430       12.6804951954        8.8842819700
  I        12.3506924010       17.8738852002        8.2696537177
  I        19.7503867624       19.5824549149        8.6865386463
  I        11.7984206589        8.7259763712       11.8717159255
  I        18.5178877865        8.8938085931       11.3828182829
  I         9.0432525049       12.0309156197       10.3683450758
  I        12.2556480292       13.0246135387       13.6903757407
  I        11.6676116764       15.6922436556       10.2303632301
  I        16.2030044978       11.0742316894       12.1577696931
  I        18.6662099971       12.6899412411       15.9147578768
  I        18.4152236742       15.8303868983       12.0336280964
  I        22.2199704425       12.9004777227       12.3259244276
  I         9.5928951129       18.3568408429       13.1051830716
  I        13.2180431215       19.7303040144       15.5088899808
  I        11.8478638651       22.1048639276       11.4640838966
  I        15.3083603026       18.2066399003       11.7022628119
  I        18.1621288207       18.4603708800       15.6262610592
  I        19.9895259929       22.5015123759       12.2351959581
  I        21.9108044907       18.3996707388       12.2957967959
  I        13.0608080205        8.6292465676       18.9714926027
  I        20.6135476103        8.9244194991       18.5999178539
  I         9.3582516548       12.2758468280       17.5784121280
  I        11.5421797155       13.3474670154       21.5229703397
  I        13.0417858180       15.0368558007       17.2881603717
  I        15.3795911246       10.5847228938       18.1136342539
  I        18.0607803452       11.7632572117       21.6332875842
  I        18.9073431813       15.9177620634       19.6137757697
  I        22.1753195712       13.0350747739       19.5908529539
  I         9.6005894541       17.6137286964       18.2243529170
  I        11.7768882445       18.9857574740       22.0092963686
  I        11.2360261907       22.1147938060       18.9111673773
  I        15.3852222059       18.5962265309       19.2737830245
  I        19.3935654339       17.8366989947       22.0393238741
  I        17.7108588595       22.3238941907       19.2795666139
  I        21.6201208224       20.1003189459       18.0699037273
 Pb        11.9294324765       11.5539063549       11.0934051755
 Pb        19.0954887391       12.8108150740       11.9179191688
 Pb        12.5412139037       19.3405159694       12.5926668494
 Pb        19.1739182066       19.4644306575       11.6456866245
 Pb        12.2297734768       12.4022521263       18.6755087475
 Pb        19.5099896353       11.7316795154       18.8058053522
 Pb        12.1489361187       19.1462367347       18.9745047946
 Pb        18.5241226235       19.2936086470       18.5508145490
  C        15.7175881208       15.2390640203        8.2352539163
  C        14.8918714202        8.3211344102       14.5621552653
  C         8.4476403869       14.8023897833       14.7466104872
  C        15.4488086630       15.2327554171       14.4481091542
  C        21.7396625106       15.5382423361       15.4006852878
  C        16.3402871074       21.6280161517       14.1840868505
  C        15.3133868248       15.1959663260       21.3260760367
  N        17.2065473587       15.5515349937        8.5440734441
  N        16.3295522270        8.6288994016       15.0808636869
  N         9.7202441308       15.5405485018       15.3053515431
  N        16.3354716969       15.4337266129       15.7249043986
  N        23.1883781456       15.2112894839       15.8342312622
  N        16.8776234602       22.0300223998       15.5913322542
  N        16.4486333568       15.0058105687       22.3704835713
  H        15.6980537216       14.7217342042        7.3080168463
  H        15.1905043744       16.1573487786        8.1593793035
  H        15.3063659091       14.6426792820        9.0111392824
  H        17.7069019997       16.0345124661        7.6237432829
  H        17.7213557262       14.6722392366        8.7242506117
  H        17.2919382051       16.1560951932        9.3705111022
  H        14.9573704669        8.0461947073       13.5354093823
  H        14.2898355882        9.1853457161       14.6817320327
  H        14.5198903950        7.5085155647       15.1402741617
  H        16.7033224168        9.4608564975       14.6030386244
  H        17.0042087154        7.7421963506       14.8492376477
  H        16.3011113352        8.8140350899       16.0937005087
  H         8.7803933792       14.0310797809       14.0974355482
  H         7.8825076908       15.5187072461       14.2056200397
  H         7.8868450736       14.4158142835       15.5684929230
  H        10.0200437661       16.2641784004       14.6155281091
  H        10.4942025069       14.8705029320       15.4742598002
  H         9.5256632455       16.0329457897       16.2103285370
  H        16.0833440810       15.2742982047       13.5979991606
  H        14.7396425710       16.0230289182       14.4207824731
  H        14.9663999267       14.2903032496       14.5254311658
  H        16.8393309678       16.3579949311       15.6859912602
  H        17.0462647908       14.6650708038       15.8017927626
  H        15.7194490163       15.4126955001       16.5635783049
  H        21.7865051624       16.1635093128       14.5434830190
  H        21.2451882362       16.0427095389       16.1922253987
  H        21.2346605186       14.6381355509       15.1582736360
  H        23.7348848086       16.1284064518       16.0941394953
  H        23.7937465811       14.8222965469       15.0121303252
  H        23.2010634121       14.5508579065       16.6173084471
  H        16.9458599908       22.0975593560       13.4509075239
  H        15.3356088861       21.9612819456       14.0995497294
  H        16.3901603576       20.5729100591       14.0855894049
  H        16.7322048556       23.0971111222       15.7263983438
  H        17.9317146520       21.8742998392       15.6676787930
  H        16.3915211434       21.5046870669       16.3275983708
  H        15.7212867563       15.1671408545       20.3473533242
  H        14.8504673196       16.1354046277       21.4997052686
  H        14.6086313017       14.4141838814       21.4646097038
  H        17.1449906834       15.7545790890       22.2825709674
  H        16.9270855514       14.1034534344       22.2151259818
  H        15.9933393363       15.0474992331       23.4391878162
  H         6.8926918767       11.5196970151       13.0639973992
  O         7.0628875885       11.0249960026       13.9266025205
  H         6.8976954767       11.6843550670       14.6694916754
  H         6.8747274007       10.5147080688       20.1832899167
  O         7.8392476813       10.3687107174       19.9396724765
  H         8.1312323114       11.0791738437       19.2483277342
  H         6.3324402285       15.2684505361       12.4043617498
  O         6.5142316697       14.2533128652       12.3420674158
  H         7.0131869244       14.1011471363       11.4856846189
  H         5.4722955841       13.8988344758       17.3577064082
  O         6.2839429280       14.3567273311       16.9903387018
  H         6.2916248507       15.3297062984       17.3835963526
  H         6.0074209133       17.2075674265       13.6244633245
  O         6.1779147914       16.9465320140       12.6721953315
  H         6.0032446239       17.7896641634       12.0965175611
  H         6.3505769502       17.7205565782       17.6375567508
  O         6.2953224288       16.7484844348       18.0453835428
  H         6.6724379524       16.7891937432       18.9756215257
  H         4.9186909917       19.4964023577       10.8936715206
  O         5.7419725698       19.2203906042       11.3907711929
  H         6.5490850851       19.7548631266       11.0585039329
  H         5.5591921436       19.7571891871       17.1329812648
  O         6.4019820956       19.2191761059       17.0957930855
  H         7.1942764071       19.8926118598       17.0959617364
  H         8.6746838291        9.3500772636        9.0013465830
  O         8.9416071408        8.6377162040        8.3424037962
  H         9.5594353076        8.0201462035        8.8377690513
  H         8.2066917044        9.7834906105       14.1125901162
  O         8.9371344711        9.0691587812       14.2470924890
  H         9.7104415641        9.3178283551       13.6549911731
  H         8.5120520741        8.9261737876       19.2542963797
  O         9.0511439160        8.2019710708       18.7708673085
  H         8.8810753796        8.2583692346       17.7823038215
  H         8.9343013426       10.3121200163       21.1681326557
  O         9.7150632029       10.2689074252       21.8424730285
  H        10.1932604107       11.1609803578       21.8855319916
  H         9.7669412778       13.1299185954        7.8761932434
  O        10.2634650607       13.9231109926        7.4950370860
  H        10.5538862788       14.5066843721        8.2748843920
  H         9.4135161295       17.2325733410       21.8959147473
  O         8.8390228530       16.4050609860       21.9452099882
  H         9.4194540512       15.6623718377       21.5872176645
  H         8.6732295655       20.3613799584        9.2085343144
  O         9.0500173789       20.4004847286        8.2374173205
  H         8.7610926369       19.5948007337        7.7180901605
  H         8.3456455906       21.3220622224       11.1408506242
  O         8.1729303784       20.4003574735       10.7669920206
  H         8.6664366562       19.7346858680       11.3887238110
  H         8.8861265622       21.0917626281       16.1835634106
  O         8.2823668574       21.1547318339       16.9863198503
  H         8.8757754156       21.4239312833       17.7631423616
  H         9.5341087003       22.3028331070       21.3696546370
  O         9.0128229301       22.0704180716       22.1999541360
  H         9.4259767763       21.2158744544       22.5348705466
  H        10.7839771953        6.1764505240       13.8584918045
  O        11.5881766776        5.6180988939       13.6160827980
  H        12.2217840058        5.6692034408       14.3990380611
  H        10.3638541679        7.6025692641       19.2587833428
  O        11.2546942935        7.2373380259       19.7303410496
  H        11.2043885290        7.6016578012       20.8203362761
  H        10.4587888595        9.1085893245       21.9868962705
  O        11.0488034650        8.1968547018       21.9647972022
  H        11.6306580126        8.0506653110       22.7615597907
  H        11.3116769538       11.6035986803       25.3744706966
  O        12.0905734005       11.2772399222       24.8316386744
  H        12.1923929953       11.9243921062       24.0655786300
  H        11.2132776851       13.7816396372        6.3782985389
  O        11.9244508698       13.7052149217        5.5874795909
  H        11.5147188855       13.8832217598        4.6942610197
  H        13.0651581409       17.2209421370       24.3388415835
  O        13.9708935193       17.2080522669       24.7650514154
  H        14.4491153230       18.1742784949       24.6633392177
  H        12.6387837202       19.6068431057        5.8106341954
  O        12.9151157815       19.8579089799        6.7474625421
  H        12.1913467728       20.6292632277        7.2264818911
  H        10.3495206445       20.9942961818        7.9746959848
  O        11.3489465960       21.3791827308        7.8170096850
  H        11.6743810309       21.8741755464        8.6315022777
  H        12.4233774272       25.4181971413       11.3509544607
  O        13.3541995663       25.0459915401       11.2894567647
  H        13.7853773235       24.9978813891       12.2896792319
  H        12.4388920720       25.7592580660       15.9121394307
  O        13.3553289355       25.3675801933       15.8340753236
  H        13.6260111579       24.9330549930       16.7448756428
  H        13.9495211288        6.3158355815       11.5318527430
  O        14.6787645416        7.0088242812       11.5022247915
  H        14.6930734618        7.4258087240       10.5519173980
  H        13.8754398920        6.1083642524       17.4782803054
  O        14.4627389320        5.9360217389       16.6795956451
  H        15.3831496027        5.7601070488       17.0493007074
  H        14.2574899809        8.9141885870        8.8147977346
  O        14.7986695847        8.1027485956        9.0702364208
  H        15.7368278307        8.2521231689        8.7388238514
  H        13.0281111287       12.8974710519        5.6809986574
  O        13.9077541661       12.2065226070        5.8058354416
  H        14.7838415037       12.7223545395        5.7865356263
  H        14.7175400649       16.0823605435       24.7294123715
  O        15.3834023427       15.1961323713       24.6250012196
  H        15.7184146002       14.8507824011       25.4967404213
  H        14.6627930663       19.7983459738        7.0353730671
  O        15.6691168061       19.7602569566        7.1766535329
  H        16.0411950242       20.5112337298        7.8809166139
  H        15.1482568409       20.0064546535       23.6119526241
  O        15.1317540264       19.4302131288       24.4908189452
  H        15.7189557884       19.8238639216       25.1949260724
  H        14.4951808827       23.1603833583       10.6698361426
  O        15.4608947931       22.8953878314       10.5561297605
  H        16.0449463085       23.6740254248       10.8930475422
  H        13.9739833505       20.6029871107       22.0822551594
  O        14.9448837727       20.7720761247       22.3284800033
  H        15.4988896692       20.6635072250       21.4906896984
  H        13.9626796538       25.1063623247       14.4976966588
  O        14.4127160945       24.9553609795       13.5495208534
  H        15.3936444456       24.7890692623       13.6591178118
  H        13.1838731522       23.6330822190       18.4556149267
  O        13.9089099156       24.2817680285       18.1521087623
  H        14.7648208886       24.0360745056       18.6183083213
  H        17.8188014948        6.2021554814       13.6942840201
  O        17.8891110725        6.6954086615       14.5612335802
  H        18.9119509427        6.9132617647       14.8121042760
  H        17.1962477508        7.2785096015       20.2629607392
  O        17.3327819152        6.6993628618       19.4168187788
  H        18.2510863717        6.9395198436       19.0799572375
  H        16.5117777419        8.2428946309       22.3510050938
  O        17.2106962111        8.3068441457       21.6341372582
  H        17.5070773865        9.2727050017       21.5909763127
  H        16.8296352815       12.0229710309       24.6498526523
  O        17.7713797155       11.6635062131       24.5863049347
  H        18.4795271206       12.4967926179       24.6217848797
  H        17.4037822530       14.1123180353        4.4028048477
  O        17.2187744424       14.2463547472        5.3759812088
  H        17.7008835630       15.1122687353        5.6721214301
  H        16.3998192425       19.0860144591        6.4190556072
  O        17.0996395119       18.4738399923        5.6957871988
  H        17.5093024164       19.0388362220        4.9857578157
  H        16.0468837530       22.0529933196        9.4993343432
  O        16.5545833482       21.4795593328        8.7572426436
  H        17.5105347409       21.3188078133        9.0028058825
  H        16.7188773482       25.8694709135       11.1425916211
  O        17.0016200067       24.9387451895       11.3952646383
  H        18.0043663946       24.8710103449       11.3339027823
  H        16.3760826985       25.3339551403       16.1950035834
  O        16.7709430752       24.6198887914       15.6200948496
  H        17.6223394881       24.9550101414       15.1217856161
  H        20.3688599418        7.9638184252        9.5962298099
  O        20.3069663766        7.5639393764       10.6556529563
  H        21.2462338176        7.9482806469       11.2358871186
  H        20.2369717176        7.6042477071       16.2757763298
  O        20.2095878383        7.3493243757       15.3022828783
  H        21.0138231033        7.8304821260       14.8357141207
  H        19.9279923567        8.5927799616        7.6385308825
  O        20.5298724845        8.6288147658        8.4337843591
  H        21.2232348021        9.4496808231        8.4058379691
  H        19.1300865446       11.8176307495        5.8452095692
  O        19.8146866838       11.1641247289        5.5009589748
  H        20.6997569543       11.4769949498        5.8596292116
  H        19.8243639700       13.8615789340       25.4849242340
  O        19.3552304709       13.6301078274       24.6328352035
  H        19.9782836383       13.8531992971       23.8096940354
  H        17.7193076088       17.4663203812        6.0592310331
  O        18.2706102641       16.4903798947        6.4463981770
  H        19.2574672219       16.6452965714        6.5129434917
  H        19.7472019702       20.4643908299       23.2780914221
  O        20.1923153655       19.5413392297       23.6307558538
  H        21.1806518338       19.5892924429       23.1274363714
  H        19.9321804221       21.9784497737       14.7226997022
  O        19.5834995992       21.9857414917       15.6755283298
  H        20.1564231950       21.3467983068       16.2135554891
  H        18.9114899959       22.0763106392       21.9440152709
  O        19.6448026424       21.8066534523       22.5795086107
  H        20.5604779720       22.1042718605       22.2093151554
  H        19.1628946963       24.3606610899       13.6638901858
  O        18.8871322456       25.1538966692       14.2450502576
  H        19.7154757945       25.6443747472       14.5276588474
  H        19.9558355097       23.1786503716       19.3666817295
  O        20.9780052905       23.3125353643       19.4071577999
  H        21.3470315486       22.9376174762       18.5429579301
  H        22.3477029245        8.4609295162       12.8927240243
  O        22.2976876524        8.4196228834       11.8209904193
  H        22.8938506015        9.0996898275       11.3524872785
  H        22.6887800445        9.5669387749       14.6947539741
  O        22.4132995193        8.5183062284       14.3541777352
  H        23.1191107193        7.8898536389       14.6924538482
  H        21.9333581061        8.1630186192       22.4089279913
  O        22.7905600183        8.4872064081       21.9954167435
  H        22.5478182566        8.7897371143       21.0661367373
  H        21.5019927554       11.4069671073        8.7007893981
  O        22.0748806170       10.5857457481        8.5487484814
  H        22.8042552727       10.5285288135        9.2766053721
  H        22.6902811291       11.5307788488       14.4038695422
  O        23.0697202871       10.7992870806       14.9833382219
  H        23.6725762674       11.1586467818       15.7869061277
  H        21.2335262577       13.6471808878       21.9508730232
  O        20.8678622449       14.2529551620       22.6800242479
  H        20.9074042180       15.1988477418       22.3442529142
  H        21.8151197663       17.2289708323        8.6118588885
  O        22.5699641760       16.8937048582        8.0346810369
  H        23.2210886163       17.6555169841        7.9682293914
  H        22.3581471076       19.1422351598       21.4889351206
  O        22.2265522782       19.8173574118       22.2171228050
  H        22.2409071459       20.7960649566       21.8092132933
  H        22.1165151642       21.5397547956        8.8015143747
  O        22.7970365140       22.1682110016        8.4037962130
  H        22.3392850938       22.6182586016        7.6330378227
  H        22.7791190944       20.2875722880       13.4656932656
  O        23.5116687708       20.8396509038       13.9243256803
  H        23.5630140660       21.7358066055       13.4716535350
  H        21.6694031633       22.7022055306       20.5320470262
  O        22.0784091674       22.2490004401       21.4241519032
  H        22.7730146906       22.8527857204       21.8216343165
  H        23.3801920130       11.2756393449       11.2063092029
  O        23.7349639608       10.4722608683       10.6577828077
  H        24.7374784322       10.5211090604       10.6006337970
  H        23.9137123673       11.1695124788       17.8022679349
  O        24.3882262021       11.5479517525       17.0005921792
  H        24.9082447293       12.3799476630       17.3262696659
  H        25.0013818903       15.4974075027       13.4377289030
  O        24.8350406778       14.5721861310       13.9271494711
  H        24.5702988694       13.8979016939       13.2356725379
  H        25.0189941485       14.0703169973       18.9510225795
  O        25.4989460508       13.7138698947       18.1421501455
  H        26.1118488265       14.4229890379       17.7798165565
  H        24.4472865168       16.9940767090       11.9807110963
  O        25.0557389104       16.8445118947       12.7633997333
  H        25.1385522199       17.7290845981       13.3036891208
  H        24.7850819539       17.7704619572       17.1393447021
  O        24.6218313860       17.2791565349       16.2552108196
  H        24.8673795510       17.9042893357       15.4845370196
  H        24.6071529256       19.8174682947       14.1484285667
  O        25.2869724084       19.0080748511       14.2458688435
  H        26.2199741136       19.3695256341       14.2972580866
  H        23.9093694351       19.1485017680       18.4965581677
  O        24.8176237040       18.6854790237       18.4726306766
  H        25.4570761734       19.1795142678       19.0635620595
