     100
 i =      301, E =      -575.4882135721
  I        12.2819975327       11.5253982433        8.5735557252
  I        19.2527219257       13.5869054765        8.4654261968
  I        12.6757522198       18.5170112652        8.8278934240
  I        17.2954611765       18.8741262140        8.4850059855
  I        14.8963155535        8.7390351860       11.5427897538
  I        17.5794136425       10.4487005946       11.6865456813
  I        11.4266703020        7.9195566223       11.3596669730
  I        11.0650546518       11.6478476324       14.2542905171
  I        11.9503926298       15.0211054062       11.7952513554
  I        14.7013528179       13.3887568230       11.9782081016
  I        18.0289046845       12.5362991887       15.4000134029
  I        18.5255513343       15.6331350849       12.3246224232
  I        22.4283215052       13.0570210430       12.0726893694
  I         9.3109443903       16.5722883394       11.6207581697
  I        11.5849280823       18.6686427622       14.8556775561
  I        12.5096050979       22.1269756019       11.7964808567
  I        15.2819494140       18.2612203590       12.5645227223
  I        18.3290061839       19.0737539299       15.6372261942
  I        17.5849867779       22.2922884225       11.8190312677
  I        20.9122133332       19.4167295129       14.0958844728
  I        12.0706514947        9.2480323529       19.2864510160
  I        18.4702251341        9.1332092776       18.4056094507
  I         9.3915886468       11.8155683630       16.7808383444
  I        13.6661853506       12.1387098754       22.5917074190
  I        11.4701833046       14.8978837527       19.2401708944
  I        15.0603085919       12.5185143369       18.1321795547
  I        18.4422919108       12.5153613411       21.6227339659
  I        18.5086405331       15.7657928342       18.4131731778
  I        21.8565229684       12.3855557866       18.2357197432
  I        11.1006877717       18.0330391094       18.5803466597
  I        14.8253929879       19.4108880536       21.7920100972
  I        15.4430507699       22.9890775268       18.7962940944
  I        15.4265219757       18.6652219419       17.2014435854
  I        19.8756326953       17.4319083349       22.4112621727
  I        18.4882028404       20.9678536848       19.4669781505
  I        22.6634530949       18.0114053750       18.3781010604
 Pb        12.4450885718       10.8295164426       11.4079574699
 Pb        19.5545754944       12.9176119752       11.3592353077
 Pb        12.3474949782       19.1924656367       11.7644031766
 Pb        18.0267652411       19.3893486855       11.3521532870
 Pb        12.6492593480       12.0752404690       19.8458280268
 Pb        18.8738949368       12.1282924191       18.5956502188
 Pb        13.7393116921       20.3923938193       19.2482834970
 Pb        19.9058745283       18.2928317325       19.5722227124
  C        15.0763485155       15.1194623599        8.3433380399
  C        15.0040600659        9.2697258981       15.7244938656
  C         8.6984103541       15.6665505325       15.6111874535
  C        14.7853815950       15.4243554511       15.4004059371
  C        21.0503918623       15.3303094659       15.1859740599
  C        14.9630581832       21.9224875643       14.7812072448
  C        15.4522525286       15.5372960714       21.0040704671
  N        16.3350523196       15.5413221865        9.1786200073
  N        16.5522171665        9.3943053694       15.5125607512
  N        10.2615303827       15.5449278302       15.5134567503
  N        16.3404498480       15.5435382787       15.3024842173
  N        22.1955055216       15.2203363135       16.2504736828
  N        16.3411316941       22.1434207041       15.5060913578
  N        16.7710135592       15.5440312130       21.8530181335
  H        15.2998096007       15.2711164310        7.3154764733
  H        14.2654559524       15.7379375949        8.6466989445
  H        14.8669429844       14.0963761408        8.5476202073
  H        16.5767786068       16.5554454138        9.0079015753
  H        17.1701189777       14.9598447344        8.9139631556
  H        16.1582655958       15.4009785048       10.1914737108
  H        14.5196513051        9.5657584302       14.8263552870
  H        14.7379044883        9.9090037873       16.5320919123
  H        14.7786835475        8.2576632028       15.9613423105
  H        16.8360781353       10.3942749590       15.3193278511
  H        16.8690108629        8.8060812672       14.7233292348
  H        17.0716512240        9.1212366806       16.3934053506
  H         8.3369108709       15.9113205538       14.6397501011
  H         8.4789294094       16.4438720534       16.3048020272
  H         8.3198964161       14.7304102839       15.9448702076
  H        10.6713519505       16.4887771322       15.2423233975
  H        10.5313702806       14.8425927198       14.7987365618
  H        10.6528780090       15.2643926282       16.4352625706
  H        14.4802629428       14.7359787203       14.6506276177
  H        14.3756643151       16.3890519343       15.2287709260
  H        14.5425609216       15.0655257434       16.3710141429
  H        16.6201321315       15.9525443303       14.3873772767
  H        16.8031057801       14.5906956109       15.3687574834
  H        16.7163177305       16.1352613142       16.0697901277
  H        21.2646363908       16.1469083101       14.5401600614
  H        20.1434644971       15.4894048620       15.7136970330
  H        21.0229303709       14.4157016947       14.6457621612
  H        22.2528278618       16.0905123126       16.8412930437
  H        23.1076597315       15.0751296671       15.7845792729
  H        22.0221929817       14.3949060685       16.8919768636
  H        15.1657649618       21.7452439244       13.7524754509
  H        14.3896081952       22.8086861372       14.9071839544
  H        14.4892780520       21.0837218740       15.2297538426
  H        16.8587338933       22.9083378301       15.0361221173
  H        16.9302229504       21.2830262354       15.4641550302
  H        16.1781902586       22.3984065370       16.5181680847
  H        15.7266949853       15.3855232910       19.9893162482
  H        14.9656796649       16.4731460851       21.1386983087
  H        14.8508616338       14.7363127268       21.3609618843
  H        17.4261579861       16.2955120088       21.5563006250
  H        17.2796977554       14.6142437393       21.7560137566
  H        16.5535139246       15.6921357593       22.8538085396
