100
Lattice="31.7900009155 0.0 0.0 0.0 31.0900001526 0.0 0.0 0.0 30.3899993896" Properties=species:S:1:pos:R:3 i=689 E=-1468.5903552414 pbc="F F F"
I        9.23484489      11.84996162       9.05744242
I       19.25944461      12.42933541       8.34837980
I       11.95115776      19.31904916       7.84730043
I       17.81008297      17.76742212       8.70005349
I       12.02264928       9.01470608      11.09617931
I       19.85323480       8.59107416      11.08352988
I        7.71990340      12.97366588      11.41440243
I       11.93107315      12.34356416      14.43160948
I       11.88414893      15.37636682      10.52800664
I       15.34566185      12.02011986      11.43363493
I       19.06952481      11.35648492      14.94770093
I       18.54054924      14.81602337      12.31310978
I       22.31017662      12.41386145      12.07740402
I        9.07685290      19.10624278      11.48056711
I       12.24843233      17.95757352      14.57218952
I       12.99883589      21.50258934      11.60992722
I       15.75759791      17.88078675      11.09599134
I       18.60415061      18.24523843      15.21939695
I       19.48581499      21.37701790      11.57103451
I       22.37578388      17.92152861      11.88752818
I       12.17162889       9.44216036      18.56922301
I       19.17698573       8.51940275      16.27655841
I        9.87005979      13.10962650      18.66456395
I       13.42908018      12.30877391      21.78502376
I       13.52322243      15.44406842      17.98701175
I       15.63611173      11.82354648      17.42121006
I       18.80163000      11.29339891      21.68281476
I       18.63915804      14.94968535      18.49653662
I       22.10049194      11.81909163      18.66308851
I        9.77616926      18.30009938      17.46287461
I       12.24904866      18.65899392      21.32702789
I       12.44821676      21.92195414      18.05190626
I       16.08624270      19.28766736      18.71229900
I       19.04122099      19.07865067      21.06704289
I       21.96640511      20.92471872      17.73529563
I       22.86644835      16.78114017      19.48130475
Pb      12.26037803      12.04739285      11.41761126
Pb      19.37992950      11.90339743      11.49374767
Pb      12.09027204      18.53677496      11.50463122
Pb      19.39224528      18.34488300      12.18011998
Pb      12.91298524      12.38100833      18.85253943
Pb      19.03568312      11.90259178      18.69905764
Pb      12.97181086      18.84791031      18.41503282
Pb      20.49100873      18.32938355      18.34912819
C       15.40120191      14.77199955       8.05837566
C       14.55374856       9.18446231      14.44616474
C        8.78331105      15.33622061      14.88739596
C       15.29855818      15.13884396      14.47464541
C       21.40219422      15.21297146      14.98981266
C       16.02557878      21.49534468      14.37212779
C       16.34770936      15.43544541      22.16360748
N       16.43865571      14.44418152       9.18374978
N       16.09622505       8.96384756      14.45200086
N       10.15199487      15.10454912      15.61621020
N       16.55946981      15.22033613      15.40998546
N       22.84529692      14.97752311      15.51083524
N       16.90140754      21.80640254      15.61779141
N       17.88872396      15.55653678      21.95167510
H       15.83835202      15.48723149       7.40526933
H       14.52633849      15.16547827       8.52153550
H       15.18156168      13.86674623       7.54601787
H       16.71585768      15.29888223       9.70076044
H       17.30705410      13.99564295       8.79711241
H       16.02900440      13.76155524       9.87772350
H       14.28405726       9.55785862      13.49161977
H       14.29492067       9.87903805      15.20505371
H       14.09091556       8.24077585      14.61074369
H       16.58858887       9.83680991      14.21922121
H       16.37181066       8.14564579      13.69171534
H       16.40276077       8.66211877      15.38423062
H        8.99319945      15.70511244      13.91279175
H        8.22499660      16.04135348      15.45466124
H        8.27037776      14.40642702      14.82874428
H       10.74709089      15.95858238      15.56636450
H       10.67057065      14.31003407      15.15853270
H       10.00175589      14.84274549      16.61685827
H       15.62976203      15.26797296      13.47280418
H       14.63142086      15.91506316      14.76207570
H       14.85228758      14.18325820      14.61390462
H       17.03682389      16.15571389      15.34060644
H       17.25666083      14.50271733      15.13203435
H       16.28770561      15.05767203      16.40269224
H       21.47001126      15.71473650      14.05735545
H       20.89420535      15.81849945      15.69595260
H       20.91356709      14.27936041      14.87034878
H       23.37241222      16.00106532      15.66564112
H       23.36904865      14.40622950      14.83486481
H       22.81680086      14.47004048      16.40671863
H       16.17997100      22.26196462      13.65374866
H       15.00756010      21.47596828      14.67415978
H       16.30998598      20.55528469      13.96984722
H       16.68828350      22.80827235      16.01566690
H       17.94703728      21.84906910      15.41279837
H       16.74295393      21.10182545      16.35195653
H       15.85414299      15.90795643      21.34783720
H       16.09043821      15.92010266      23.07347693
H       16.09346434      14.40402310      22.19833759
H       18.16150815      16.55655520      21.91749931
H       18.14796907      15.14982261      21.03044597
H       18.48547581      15.05921337      22.74248891
