100
Properties=species:S:1:pos:R:3 i=863 E=-3256.1157499558 pbc="F F F"
I       12.87417299      12.23603353       8.89580706
I       18.59759172      12.57358450       9.10114354
I       11.99890069      18.68192288       9.12858717
I       18.63140909      18.35075398       8.92117792
I       11.91529578       9.22546897      12.27007411
I       19.29752503       9.44048620      12.30728711
I        9.45015196      12.91167301      11.57097862
I       11.98574164      12.26827002      15.09606877
I       12.81022566      15.40389384      12.06358788
I       15.65831121      11.77755877      12.48375249
I       18.82918504      12.44817845      15.48512217
I       18.08929929      15.75282187      12.41873244
I       21.93817676      13.37751809      12.21627285
I        9.13603102      18.38235747      12.51090784
I       12.63295925      18.12068314      15.41522615
I       12.01095407      21.82406459      12.54520082
I       15.52186848      19.08146450      11.84943390
I       18.82096235      18.80409888      15.33408113
I       18.66583965      22.44098340      12.30163609
I       22.10599123      19.15324079      11.95152095
I       12.67560326       8.37591822      17.89753071
I       17.19286611       8.59148615      18.06601195
I        9.41048445      12.99806640      18.21336428
I       12.24408962      12.29528114      21.39541194
I       12.98172533      15.09398908      18.28540576
I       16.08363458      11.65961987      18.75753343
I       19.83081918      12.37827657      21.63591762
I       19.40198391      16.07105143      19.20160254
I       22.53352988      12.69477936      17.89919124
I        9.50196293      18.68020899      18.11516167
I       12.71224889      18.29255208      21.00270131
I       12.34325671      23.52015098      17.40419569
I       15.70019063      18.06456741      17.98305047
I       17.67030434      19.21163604      21.94964250
I       16.89714448      22.40895684      18.80354030
I       21.82082746      19.54829617      18.22729818
Pb      12.59384328      12.18935013      11.96154451
Pb      18.97833874      12.65475830      12.16789645
Pb      12.20826444      18.65433195      12.19182712
Pb      18.69821428      18.95457989      12.01975837
Pb      12.82126259      12.09926875      18.37099352
Pb      19.50956361      13.00084215      18.63820331
Pb      12.42428687      19.57405093      18.25917672
Pb      18.25999065      19.35284215      18.93191674
C       15.03618625      15.55298827       8.53731048
C       15.03155771       7.56011689      14.54437866
C        9.02482081      15.21278687      14.86474352
C       15.25331406      14.97687183      15.01093392
C       21.34523368      15.87805146      15.42023007
C       15.23573743      21.24801617      15.10014603
C       15.57713854      15.22521257      21.11966699
N       16.45525583      15.44849664       9.18928514
N       16.44188597       7.97850017      14.03214099
N       10.38175211      15.33363921      15.62402007
N       16.67406768      15.23649114      15.62043691
N       22.85195661      15.53147329      15.52003532
N       16.75347320      21.49439371      15.39243842
N       16.78320859      15.53027128      22.06074334
H       15.17506695      15.71208832       7.49606639
H       14.52618376      16.36868031       8.99018735
H       14.51897194      14.64226700       8.72196761
H       17.05266636      16.27143600       8.92571098
H       16.95559217      14.56885887       8.91033333
H       16.39408461      15.45637086      10.22924392
H       14.45358319       7.28296939      13.69793858
H       14.59201769       8.38453533      15.04590027
H       15.15068693       6.74074419      15.21740868
H       16.37765729       8.82120297      13.44373753
H       16.87994476       7.16131749      13.38769810
H       17.06952609       8.16892740      14.82438079
H        9.20978969      15.38831126      13.83391381
H        8.35370509      15.93108035      15.26594258
H        8.65849143      14.22927740      15.02723420
H       10.87885574      16.23586421      15.42684163
H       11.00529669      14.52722647      15.36057854
H       10.22192737      15.26652885      16.64787519
H       15.39333955      14.52422308      14.06099417
H       14.75702355      15.91290810      14.92462571
H       14.73034088      14.32635241      15.66682462
H       17.24537121      15.76933679      14.92482430
H       17.17241972      14.32731545      15.79022106
H       16.60199044      15.79554562      16.49583647
H       21.02655701      15.70425099      14.42264008
H       21.23096881      16.89872683      15.67751454
H       20.80222923      15.26989079      16.09687136
H       23.42719271      16.05633480      14.71066477
H       22.99612276      14.51791928      15.42831015
H       23.26450105      15.83925952      16.42744901
H       15.16412710      20.69247529      14.19751408
H       14.74529520      22.18569872      15.01854203
H       14.84324012      20.68097275      15.90781668
H       17.19147351      22.06447050      14.64117546
H       17.28339854      20.57745969      15.42327237
H       16.85880001      21.96334410      16.32058397
H       15.94578813      14.82887599      20.20799812
H       15.05744699      16.13518914      20.94445373
H       14.94652892      14.52038420      21.60348647
H       17.45375066      16.15142224      21.58200807
H       17.26704316      14.65251315      22.30944213
H       16.42756371      16.04009955      23.00445222
