     568
 i =      832, E =     -3256.0550351810
  I        12.5395307152       11.8193710423        8.6934931404
  I        18.4787024587       12.5314121443        8.8295430742
  I        11.5424905622       17.9235715612        8.9421962736
  I        18.2288954004       18.0375074051        8.8080935326
  I        11.4879059199        8.9919539940       11.9854530475
  I        19.1592094560        9.0485345998       11.7516506225
  I         9.3521532381       12.8270541749       11.5842257419
  I        11.9288773495       11.9206542711       14.9186431120
  I        13.1832414677       14.9348040670       11.7114266299
  I        15.3644886085       11.2115595123       12.1673040517
  I        18.5851583733       12.2263717004       15.4252286647
  I        18.0300473798       15.2670264588       12.3016400769
  I        21.7445251109       12.9358005141       12.0252795380
  I         8.7063885022       18.0294781368       12.2792926411
  I        12.1882789241       17.6925859445       15.0004839103
  I        11.7340910166       21.4131335344       12.2789433460
  I        15.0736693066       18.3315549804       11.6100922938
  I        17.7929136490       18.0907314133       15.4340017529
  I        18.3432757472       21.8424939455       11.9158081489
  I        21.6467737182       18.5172789749       11.6079247562
  I        12.3565752503        8.5033507370       18.3614542729
  I        17.0637401338        8.1064528956       17.9838244612
  I         9.2295414320       12.9279033908       18.3519981427
  I        12.2440447573       11.7553952815       21.2734435926
  I        13.3678260563       14.5585205176       18.0559215404
  I        15.8495692238       10.9678557809       18.4263380067
  I        18.4186455449       11.9307597647       21.8523006613
  I        18.5714333197       15.4030498858       19.0039172131
  I        22.1554811920       12.5509609301       17.8419031610
  I         9.6142837717       18.3351944729       18.2007099944
  I        12.2391842549       17.2435864398       21.4675261930
  I        11.9604202350       24.3272359512       17.6017355559
  I        14.3100140746       18.4416965394       17.8720109020
  I        16.7113953025       19.0864664752       21.7562126745
  I        16.6352001837       22.0192575081       18.3514799053
  I        20.6478262224       19.5284346278       18.5483129248
 Pb        12.2770337346       11.9586463116       11.7290025127
 Pb        18.8358121502       12.2051099057       11.8378027606
 Pb        11.7810110480       18.2758179686       12.0159908690
 Pb        18.4911849159       18.4243374945       11.8769387818
 Pb        12.0898136718       11.8481564281       18.2560241812
 Pb        19.1184750676       12.3970752159       18.5168440829
 Pb        12.0204279222       19.5220046139       19.6063704487
 Pb        17.5852543166       18.9482124795       18.7102311434
  C        14.8882135641       15.0285612078        8.2316820008
  C        14.8577285763        7.7630575925       14.7467927975
  C         8.6226063218       14.8981847635       14.8866119122
  C        15.1370925231       14.6818371718       14.7481736683
  C        20.9637576031       15.9834314158       15.3951966945
  C        14.7988003163       21.0506823760       14.6580865409
  C        15.1899837264       14.5643882626       21.4262775328
  N        16.1164767624       15.1202417399        9.1927192943
  N        16.3293387634        7.7790483662       14.2427230583
  N        10.0556107476       14.8953809428       15.5160185447
  N        16.3316590328       14.8961011739       15.7364086216
  N        22.4086823524       15.4313826335       15.5139059439
  N        16.3305482874       21.0587996660       14.9769560789
  N        16.4495108692       15.1186741247       22.1575291349
  H        15.2572497647       15.1432066826        7.2414614087
  H        14.2132905755       15.8091321116        8.4853835923
  H        14.4232755004       14.0840750302        8.3733984473
  H        16.6277354444       16.0274736432        9.0601229692
  H        16.7972124875       14.3340442275        9.0227151618
  H        15.8065826471       15.0719688039       10.1831001681
  H        14.2220029068        7.6077948706       13.9108585935
  H        14.6308828802        8.6914506524       15.2110685277
  H        14.7529618715        6.9682469888       15.4447016013
  H        16.4754840285        8.5575870106       13.5847818440
  H        16.6113699450        6.7870169372       13.6803774519
  H        16.9665299441        7.9078202887       15.0384686603
  H         8.6716262957       15.3847753329       13.9441155176
  H         7.9774798047       15.4117879694       15.5598995763
  H         8.3277597829       13.8850903543       14.7702024776
  H        10.5312939187       15.8262565563       15.4347441636
  H        10.6569364966       14.1741083048       15.0542568536
  H         9.9839268443       14.6258529899       16.5221426580
  H        15.5383839368       14.6204214409       13.7699087346
  H        14.4896526735       15.5178035351       14.8362776346
  H        14.6413341293       13.7813422962       15.0161875438
  H        16.8047619317       15.8194927780       15.5593805496
  H        17.0359604046       14.1263959495       15.6225378066
  H        15.9740284918       14.8855218758       16.7098825380
  H        20.4712936026       15.4647673931       14.6117054703
  H        21.0343168066       17.0170100884       15.1566538242
  H        20.4605045672       15.8411370544       16.3169790690
  H        23.0000660389       15.7188513256       14.6258816034
  H        22.3951842081       14.4080746347       15.6217459198
  H        22.9191553272       15.8401400483       16.3370397013
  H        14.6273921691       20.3157010114       13.9105526784
  H        14.5209747051       22.0170362042       14.3131303532
  H        14.2863847509       20.7883955065       15.5514485204
  H        16.8807668745       21.4747500244       14.1972532476
  H        16.6897357714       20.0658213824       15.1136651994
  H        16.5030562153       21.5775454473       15.8666062179
  H        15.5086219633       13.9607050234       20.6148145312
  H        14.6181344412       15.3877429128       21.0779298494
  H        14.6305101090       13.9847650134       22.1174179980
  H        16.9698946732       15.7400553995       21.5200552866
  H        17.0646463892       14.3270065002       22.4147945636
  H        16.1583594184       15.6859612062       23.0705466203
  H         7.5628259681       10.3431276466       10.6284411824
  O         7.4418367581        9.8676385320        9.7546876834
  H         7.7960518608       10.5534350217        8.9458787353
  H         5.6576965460        9.9155983079       13.8853894266
  O         6.4923114185       10.4696557044       13.9290181973
  H         6.2588782390       11.7124226884       13.2966236209
  H         5.6748971201       12.1941318163       17.1934613424
  O         5.9694236636       11.0002790076       16.9949480803
  H         6.3415758739       10.7399614273       16.0970095346
  H         6.3514897068       10.4537207441       17.8991269404
  O         6.8490366147        9.9358196934       19.0919177305
  H         7.3550545503       10.6590793248       19.5718311969
  H         5.7345196827       14.3432795998       10.3619870278
  O         5.7377141293       13.2778137819       10.4346035692
  H         5.9080060758       12.8108308094        9.5666362514
  H         6.0214342070       13.6336765426       13.1365806644
  O         5.9608422442       12.6301874792       12.7716788746
  H         5.8695129889       12.7465810290       11.6716255740
  H         5.6766657484       14.0846731894       16.9552543616
  O         5.4101541279       13.2951384313       17.5210837984
  H         5.4741627291       13.5942134517       18.6467293841
  H         5.9696760507       15.1092030995       19.9838318523
  O         5.6277461890       14.0338949120       19.8369759003
  H         5.8941444196       13.4110804565       20.5668107143
  H         5.6144260329       16.7755687644       10.4542690606
  O         6.0500063132       15.8140153860       10.4947497340
  H         6.8973059019       15.9132856830        9.8850268194
  H         5.5772188427       15.7648620464       13.6590947701
  O         6.0694010049       15.1149627360       13.0800125084
  H         6.1446410585       15.4765292504       12.0930560023
  H         6.2384097916       17.0966393931       16.9188032738
  O         6.3748286411       16.1283726624       17.1519190151
  H         6.5728649770       16.1250445261       18.1541521931
  H         6.1316514779       17.3074371099       19.9556718084
  O         6.5136049246       16.3015588070       20.0487368245
  H         7.3720040828       16.3014977246       20.6342651433
  H         5.3627921260       18.8429047038       11.3540451020
  O         5.4045112955       18.3515905534       10.4515222698
  H         5.8008796794       18.9699571719        9.7616334476
  H         6.0209686551       20.4799625940       12.8495157979
  O         5.6418150921       19.5478197408       12.9758177052
  H         6.4471520626       18.9803813191       13.2235856738
  H         5.3522921573       20.0194222477       16.6577615372
  O         6.0722765169       19.7600062623       17.3038927770
  H         6.8496766456       20.4328934546       17.2286360049
  H         5.8974238652       19.1281721948       18.8321411080
  O         5.8782550816       18.7245206949       19.7853478154
  H         6.4560969773       19.2862429036       20.4168611684
  H         6.2236431992        8.5655970234        8.0471158045
  O         6.5719539422        7.7145968897        7.6381165442
  H         7.4237246055        7.5108475834        8.1729375794
  H         8.1477379212        8.6745504733        9.6778642663
  O         8.7250860747        7.7755586053        9.3872312618
  H         9.7527251920        8.0983096018        8.7777249533
  H         7.3432788751        9.8020095815       13.8030850715
  O         8.3947760897        8.8557192767       13.7156155643
  H         9.2537884497        9.1338040056       13.2492696722
  H         8.7785005566        8.2702766124       15.7657620639
  O         8.9364504571        7.4675952819       16.3539508151
  H         8.6306948457        7.6919466384       17.7825988938
  H         7.5087929916        9.0665962962       18.9803922930
  O         8.3942241056        7.9860711242       18.7811777574
  H         9.1796703623        7.8076563939       19.3759855376
  H         6.9347673763        8.7879434419       21.7761920154
  O         7.7906362338        9.0252463974       22.2388941529
  H         8.0141494097       10.0910895441       22.1828608152
  H         8.5460248563       12.3184159131        7.9623188445
  O         8.2800155690       11.3324614326        7.9103998235
  H         8.9223083482       10.8316041882        7.2369070625
  H         8.5517120556       12.3719983272       22.0817005493
  O         8.6180804881       11.3330476398       21.9452562560
  H         9.5791074994       11.1649577031       21.6840476255
  H         8.7563922777       14.8212127231        8.2525316859
  O         9.2699949238       13.9311288416        8.0279026354
  H         9.8816055144       13.7425450456        8.8085001612
  H         8.8732800992       14.8568349149       21.9354083069
  O         9.1659527529       13.8258394747       22.0506780551
  H         9.8732601516       13.6790086326       21.3452314972
  H         8.0995552980       17.1378262108        8.3279519694
  O         8.1742939289       16.2011767865        8.8724717319
  H         8.8817638740       16.3879670594        9.5707082988
  H         8.7603912911       17.2366550579       22.1056656145
  O         8.7257162929       16.2954100864       21.5136196373
  H         9.4467263509       16.4081365327       20.8175099155
  H         7.6429205777       19.4026112536        8.0007808427
  O         8.2869411032       18.5623290080        7.8125866302
  H         9.1866558882       18.7895858983        8.2108308253
  H         8.2660576868       19.2543759768       22.2157410712
  O         8.8346977968       18.4626938759       22.6911154507
  H         9.7236236845       18.7530073180       23.0512416253
  H         6.4525185775       21.2101523814        7.8110367241
  O         6.9488797924       20.6172085415        8.4408058358
  H         7.5489024890       21.1901443769        9.1429897346
  H         8.1652271105       21.8234639942       11.1183207398
  O         8.4425787892       21.7777262611       10.0745526445
  H         9.3364894046       21.3253048326       10.0248557218
  H         8.1205213267       22.7458131386       13.0204875523
  O         7.9454403075       21.8026005137       12.5592433910
  H         8.5835511811       21.1254796819       12.9428675489
  H         8.5442389846       22.2111818542       16.7673327782
  O         8.2819791984       21.3782666836       17.3035054208
  H         8.9855408310       20.6517423903       17.1963545166
  H         8.3135231956       21.7166678759       19.0325219496
  O         8.3895869747       21.9128886119       20.0359842317
  H         8.9984005091       22.7435313944       20.2081275151
  H         6.7816648446       20.6542032861       22.1665800835
  O         7.4550722851       20.2273071712       21.5606359712
  H         7.9030352220       21.0025892307       20.8875719036
  H         8.8648157471        6.9875710756       10.0691284988
  O         9.1654018831        5.8234735072       10.9786393280
  H         9.9790074471        5.2410795906       10.9204159924
  H         8.3291248284        7.8131362353       13.6662346309
  O         8.6206916877        6.2601334658       13.5092908119
  H         8.8969176981        5.8941094002       11.9823954627
  H         9.3362533634        6.7442639452       15.7378649794
  O         9.8777511307        5.9999676004       14.3204018994
  H        10.9755184270        5.4676552481       13.3186292712
  H        10.3416986457        5.1037282365       20.4786737839
  O        10.7002215416        6.0275916964       20.5727562772
  H        10.2068701032        6.7818601005       21.3267696833
  H        10.3698321974        9.2084017580        7.2815473148
  O        10.6443508076        8.4909187729        8.0904368012
  H        11.6364092562        8.2526530258        8.1566062983
  H         8.8443439726        8.2497112563       22.1385339346
  O         9.8260435628        7.6790459477       22.0680138624
  H        10.5324072555        8.0481678799       22.6717773024
  H         9.4260684893        9.5559964451        5.6145598628
  O         9.9302216413       10.0445639130        6.3271773780
  H        10.7214856948       10.8812544457        5.8370748252
  H        10.8748837121       10.5196151448       25.2851855451
  O        11.4793730177       10.9032491957       24.5883559418
  H        11.1933506003       11.9268144965       24.4280606236
  H        10.1692281369       14.0052938434        6.7201738493
  O        10.8145008679       14.0339047742        5.9103372574
  H        11.1969420163       15.0684082991        5.6655953556
  H         9.9966654354       13.4550230576       23.4472237022
  O        10.5976644407       13.2834632118       24.2698643687
  H        10.8872367952       14.2052263220       24.5862948697
  H        11.0264851494       17.1911745521        5.6010749093
  O        11.5948036628       16.3082066716        5.4857214603
  H        12.5875780698       16.5865693378        5.4660225327
  H         9.6967382418       16.2646680913       24.2116747163
  O        10.6434539082       16.1103345275       24.5088784808
  H        11.1120470612       17.0052092321       24.4260139078
  H         9.4312530516       18.4931820640        6.2117818642
  O        10.3566032390       18.5643446880        5.8043397196
  H        10.7477123393       19.5005113720        6.0960643147
  H        11.3240270922       19.2500901943       25.5263557151
  O        11.5868553191       19.0056581949       24.5903927594
  H        11.5438655247       19.9049043797       24.0022279187
  H        10.7384623213       21.6191748943        5.8601400053
  O        11.0462680834       20.9508652539        6.5384463395
  H        11.9448662459       21.3338543028        6.9498368609
  H        10.6347526279       21.5484622607       22.8532820135
  O        11.4811988353       21.1587154980       23.2117538826
  H        12.3018264909       21.5178174562       22.6296642485
  H        10.6972549113       24.0326559174        9.4453124632
  O        11.5874946907       23.7443576883        9.8110245139
  H        11.4301390543       22.9526997991       10.4377799999
  H         8.9934354514       24.7569184112       13.2073338753
  O         8.4432888833       24.0605707631       13.6691462571
  H         8.6625651731       24.0481316083       14.6863591601
  H         8.3421871891       24.5617070429       16.8070885550
  O         8.9393470382       23.9667775969       16.2563633852
  H         9.9161947569       24.1071923206       16.5936185115
  H        10.1120270208       24.6279302837       20.9965062841
  O         9.9349639045       23.9687144559       20.2638686996
  H        10.6249306150       24.0990914572       19.5129010614
  H        12.6436330640        6.3102737395       10.0054048167
  O        13.1735914603        6.0422636544       10.8158232242
  H        14.1484164031        6.9506683833       10.9973065933
  H        12.5417502651        5.6794080505       11.6033145022
  O        11.7026721796        5.0699955904       12.6647504466
  H        12.0972910328        4.2555071393       13.0931720158
  H        12.6426975069        5.5426826043       16.9997393156
  O        13.4081057101        4.9980978021       17.3557125091
  H        13.6392338141        5.4326376529       18.2402843640
  H        11.7968635981        6.2997233346       20.1864695897
  O        12.9186814793        6.7028980099       19.8415121700
  H        13.3865672643        7.3019145956       20.6472950516
  H        13.4034136100        7.0527856166        7.2286614734
  O        13.2507873378        7.7714851501        7.9101022452
  H        13.9720592644        8.4907785958        7.7492402425
  H        14.4995253003        8.6053956095       11.4804916523
  O        14.9000884621        7.7753441037       11.0809767393
  H        15.6965671363        8.0275507818       10.1796797864
  H        13.6075413601        8.6390491165       22.5532631577
  O        14.0254141007        8.2064732073       21.6200865693
  H        14.3022753426        9.0045486485       21.0680792340
  H        11.1567451351       12.9873913189        5.5956958898
  O        11.4242674446       11.7337090822        5.3766874643
  H        12.3792449163       11.4804336311        5.2347077420
  H        14.6431027195       10.3938779816        8.1870209772
  O        15.2289213429        9.7200781722        7.7055338613
  H        15.8662215797       10.3194394386        6.8831239070
  H        12.4844303826       10.0043466878       24.0212776173
  O        13.2494365046        9.2843070362       23.7472187981
  H        14.0601502825        9.4613157945       24.3087225351
  H        14.6133826045       13.5357760196       25.2679871577
  O        15.5197469469       13.7619144547       24.9139036829
  H        15.6142076932       14.8087812563       24.8244652017
  H        14.9498421942       16.9741728412       24.3874851191
  O        15.7872384114       16.3021531913       24.3765897970
  H        16.5752939513       16.8843858134       24.7449513111
  H        13.9663657420       17.9822848082        4.5852115984
  O        14.0273162376       17.3793057063        5.3825957341
  H        14.2883692348       17.9788454372        6.2480964436
  H        13.8518847384       18.4320714053        8.1624449151
  O        14.5678039354       18.6760020653        7.4928003699
  H        14.9822719367       19.5829505012        7.7908077652
  H        13.0772437363       18.4119654444       24.4891554789
  O        14.0879817914       18.1721426970       24.3539344125
  H        14.4207375483       18.7023745523       23.5676551837
  H        12.8667693689       22.7455584901        8.2532792618
  O        13.1331327131       22.1315117141        7.4985244891
  H        14.0773210583       21.7531122602        7.6909115496
  H        14.0824510749       21.7401659955       11.2327730402
  O        14.9049285762       21.9141872114       10.6633644778
  H        15.7163480213       22.0745690677       11.2435708842
  H        13.3987010071       22.9846913708       21.3307603953
  O        13.3633332125       22.0205410463       21.7356496013
  H        14.1921368496       21.5090785705       21.4969070295
  H        12.8449370795       24.5647435076       10.5899303295
  O        13.5885269558       24.9415311603       11.1788417048
  H        14.5161345390       25.1031767773       10.6872933696
  H        13.9682369062       24.5448295299       12.3864406367
  O        14.5612410919       24.2899983358       13.3111947151
  H        14.1019409525       24.5589580702       14.1563422499
  H        14.3047536529       24.5536548967       16.9149703099
  O        15.1224870051       25.0528280943       16.5635181602
  H        14.8625351924       26.0210270364       16.5172560571
  H        13.8645024623       25.2255111234       20.9317006465
  O        13.3577348078       24.4001790444       20.6801191123
  H        13.0770301798       24.4430038954       19.6937013391
  H        17.1724693100        6.3979678957        9.9856195067
  O        17.6665159489        5.8306100055       10.6524912078
  H        18.7237361202        6.0745594729       10.6804424303
  H        17.2298970374        5.7480995763       11.9069523274
  O        16.9872943647        5.7091894777       12.9957165104
  H        16.8275022393        4.7897702489       13.3411206730
  H        18.0375971309        5.5334224169       19.0264432852
  O        17.8782322888        5.8300297067       17.7355459270
  H        18.7222184986        5.8108851366       17.1683808318
  H        17.4463183527        5.8318773199       20.7362134075
  O        18.2020434314        5.4055916572       20.1533975492
  H        19.2440557995        5.7482575342       20.4420436328
  H        15.9068588281        9.0170305098        8.4954401572
  O        16.4565512230        8.3193078127        9.2919585036
  H        17.2805967466        8.7644821177        9.6673558690
  H        15.5343329588        7.1695304023       21.6480875929
  O        16.4463454390        6.6974975006       21.7394430212
  H        16.9422170142        7.1706973255       22.4718055913
  H        16.6157556239       12.0456625869        5.7707740655
  O        16.6123998607       10.9468582927        6.0959195784
  H        17.5654715630       10.6408662736        6.1705953622
  H        16.4411342412       12.5606992697       24.5300820378
  O        17.0036599435       11.6629992843       24.3748306421
  H        18.0723301094       11.7402179187       24.7959499246
  H        16.4047440998       14.2787477737        5.2978954857
  O        16.8936637568       13.2820167313        5.3814706384
  H        17.8855272180       13.4173877715        5.3349761380
  H        15.1810915765       16.1475173506        5.2154922863
  O        16.0661276021       15.6136039863        5.2541385357
  H        16.8432419875       16.3120603550        5.1882471824
  H        17.3963109050       18.1055679950        6.0660392548
  O        17.7723761004       17.5990729755        5.2824248552
  H        18.8011273757       17.7341760103        5.3270937088
  H        17.2926348187       18.0876901892       26.3215241553
  O        17.6673084530       17.8133137185       25.4354818655
  H        18.4408582756       18.5239066927       25.1247021459
  H        15.2373976533       21.3273827297        9.3430655372
  O        15.4452537310       21.0503335507        8.3344490388
  H        16.4101602241       21.2308362695        8.1394742565
  H        17.5427838328       21.4072860584       22.0077678599
  O        18.2096913124       22.1309073887       22.2628550140
  H        18.1708334248       22.9461481889       21.6298033160
  H        16.3870272071       25.9793492012        9.8403214313
  O        16.0054331301       25.2742777936       10.4337313026
  H        16.4903402163       25.2671652734       11.3901291959
  H        15.8533181134       24.6527175440       13.0975158488
  O        16.8947573687       24.9246096317       12.7752986330
  H        17.3857619274       24.0603459775       12.5856972980
  H        16.6558938998       24.5937117940       15.9955164539
  O        17.5448721131       24.3966736988       15.5052464718
  H        17.4800261167       24.7740468297       14.5539658764
  H        17.7182512027       23.6061547911       19.6919612996
  O        18.2116480957       24.0727464250       20.4683293066
  H        17.9379197494       25.0369469531       20.5109652510
  H        20.6960503834        6.8625463310        9.6746829392
  O        20.0930996630        6.4746937057       10.7645725724
  H        20.6927080029        6.2226455135       11.5354702075
  H        20.4878781975        5.1316854571       13.8932659952
  O        21.5056936197        5.1795287511       13.9296305300
  H        22.3572977732        6.4850917794       13.9540791723
  H        20.6595060729        6.5528791637       16.0268578412
  O        20.9818580476        5.5011598644       16.1462527889
  H        21.9744165204        5.4446218747       16.3132787005
  H        20.5803608345        7.3615600326       20.5631007116
  O        20.4228590296        6.2802722379       20.6828769867
  H        21.2729254383        5.7641994409       20.7529545322
  H        20.4866942266        7.3889321770        7.9728875703
  O        21.1601432863        7.1992210121        8.6837005508
  H        22.2388182457        7.8220351992        8.5878796266
  H        19.5758780887        8.1384611353       16.7214691213
  O        20.0874279674        7.7845008021       15.9369072129
  H        20.5635949288        8.6072440999       15.4483087230
  H        19.8285605913        9.2043934516       20.2958587634
  O        20.7197418753        8.7477084138       20.3622041699
  H        21.3797848738        9.3140958827       21.0758012667
  H        20.6945008120       12.1470953625        5.7276926652
  O        20.6478504080       11.0129613761        5.8003793550
  H        20.9107114170       10.5845452609        4.9356570067
  H        19.9476090155       12.7308103616       24.9196802721
  O        19.3160786348       11.8687462098       25.2330986109
  H        19.5830546244       11.4914816677       26.1158658392
  H        20.9201701829       14.3015291850        5.2833764870
  O        20.9032217119       13.4448523082        5.8797265104
  H        21.3721576361       13.6259708023        6.7907043876
  H        20.1232829902       14.7336496670       24.6438625403
  O        20.6455935800       13.8252824770       24.5827362915
  H        21.2507401152       13.8892868226       23.7565170820
  H        20.8076752640       16.6105577043        4.8702889690
  O        21.0824687735       15.6603607662        4.5373511555
  H        21.7968201975       15.7472674383        3.8439226859
  H        18.6997928847       16.5899192933       25.0139997453
  O        19.4304579789       16.0911413606       24.4781389350
  H        19.9034684660       16.7809864646       23.9230936772
  H        20.5837416218       18.8613999862        4.7067138868
  O        20.4299369869       18.1333618979        5.3777009443
  H        21.0254878086       18.3579265414        6.2607652622
  H        19.8622783803       19.9987410207       24.0903175655
  O        19.6493218203       19.2112213619       24.8048559318
  H        20.4439035641       19.0505394239       25.3873091940
  H        19.7029272534       20.7859490168        9.0023869466
  O        20.5309799726       20.9392810605        8.4503669275
  H        21.2561801251       21.2926478197        9.0835707568
  H        18.6110500422       23.5142385448       15.9541140872
  O        19.4201214798       22.8971690905       16.3472159010
  H        19.0345312162       22.2694220830       17.0343202665
  H        19.3662073943       21.5202454635       22.7204202118
  O        20.2143165687       20.9492113561       23.1099922183
  H        21.0072895553       21.5423272513       23.2433840559
  H        20.2365098101       23.1777018901       11.3108764579
  O        21.0725212688       23.7476465140       11.0809678245
  H        20.7999712236       24.4426989138       10.4062420863
  H        21.6705360904       24.1942258219       12.6310527970
  O        21.9701096433       24.2892622105       13.6095003972
  H        22.6930308508       24.9796162351       13.6583230908
  H        20.3472720218       23.8444119437       16.9539137781
  O        20.9776508787       24.5110645695       17.5081161611
  H        21.4575006828       25.1744903165       16.9406922028
  H        20.1413740122       23.8047419116       20.2277964641
  O        21.0729745783       23.7561416631       19.8445768497
  H        21.1004833883       24.1750278980       18.8424434223
  H        22.7680066564        9.5696672753        8.0792451253
  O        23.1810805252        8.5267988765        8.4485952452
  H        23.7837734641        8.5654234257        9.2496967783
  H        22.0671118439        9.0059349125       11.7627430511
  O        23.0057153132        8.6826827753       11.9245197493
  H        23.6894788630        9.5052489955       11.7176517458
  H        23.0325079290        7.9381676848       13.1077255529
  O        22.9552142158        7.3372080803       14.0275271045
  H        23.2239886994        7.7525792420       15.0905844225
  H        23.2292765908        8.1691766174       17.1537683571
  O        23.5154549157        8.3168888159       16.1579215737
  H        24.2158589974        9.1222310894       16.0569944572
  H        21.9332456709        8.4768783933       19.0371403667
  O        22.8458714686        8.2024631151       18.6781757077
  H        23.3904472943        7.9381485570       19.5069747404
  H        23.3298731810        8.5477594969       21.6651498061
  O        23.8406858135        7.7762482664       21.2114759361
  H        24.7986915273        7.8284336843       21.4962972972
  H        21.4572067200       10.7165704818        6.8286184295
  O        22.1835624089       10.5972678619        7.6951892324
  H        22.4620294633       11.4827368780        8.0677182486
  H        20.7101978197       10.7175738521       14.9178012881
  O        21.1950729981        9.8328089236       14.9850998956
  H        22.1606071581        9.9619644120       15.2397984647
  H        21.9289561991       10.3075611015       22.7088860030
  O        22.2872938100        9.9250244963       21.8571789287
  H        23.0333771661       10.6135763741       21.2882249330
  H        21.3613018441       13.5154434339        8.8930987953
  O        22.0671639148       13.8221704051        8.2383034247
  H        22.1402357513       14.8641409764        8.3743994597
  H        21.1604494762       13.6864839636       21.6769332309
  O        21.8477513189       14.2515836502       22.1511828725
  H        21.7939127806       15.2604193660       21.7212624184
  H        21.7021462260       16.5709607415        9.6396803562
  O        22.1808154247       16.4110571779        8.7632771768
  H        21.9517376938       17.2608798618        8.1796261796
  H        21.1463087264       16.5573491578       20.2734231380
  O        21.8477786352       16.5167184650       20.9963041785
  H        21.8434776392       17.5075679077       21.5400890126
  H        21.0780773465       19.3791164883        7.9098619034
  O        21.7328073710       18.6854935540        7.4939657935
  H        22.6774616358       19.1644734165        7.6923586184
  H        21.5901740403       19.1887770553       15.9838445982
  O        22.0720751941       19.1042993219       15.1025944934
  H        21.9010656664       19.9719179685       14.6202073478
  H        21.0157739762       19.2263663294       22.3001507095
  O        21.8633291979       18.6921428676       22.1627657298
  H        22.6587718448       19.4107863290       22.0203772324
  H        23.4283397223       20.7986464158        8.8469391148
  O        23.7447232890       19.9656483286        8.3463305918
  H        24.3584728920       19.4756820691        9.0063399591
  H        22.4643089298       20.9853796893       10.9412212718
  O        22.6215199868       21.6920163861       10.2329152653
  H        22.2422314242       22.5773043016       10.5838234381
  H        20.8329426779       22.1819500553       15.5284900713
  O        21.7486934292       22.0324312359       15.0882667911
  H        21.9045860473       22.8581022999       14.4833065402
  H        22.9672640441       21.6247223096       15.8839684130
  O        23.8365813804       21.3782946534       16.4645524045
  H        23.7799656942       21.8514804998       17.3460833985
  H        21.9240710452       22.8082738192       20.0601524584
  O        22.6232108148       21.9049204761       20.0439526531
  H        22.1325930669       21.2069522046       19.4934474063
  H        23.1563756154       21.2909404532       20.9770286103
  O        23.6234875201       20.4959514938       21.7402436628
  H        24.1295000336       20.8964842654       22.5017682662
  H        24.5318337676       11.4088303811       10.9120410045
  O        24.6160250363       10.5832289651       11.4996798046
  H        25.1025384160       10.8554661049       12.3890324073
  H        25.3704903208       12.4530047393       13.7781536346
  O        25.7731282970       11.3685990730       13.7024114330
  H        26.7656721796       11.3656255255       13.5720303454
  H        24.7780145100       11.0689336861       16.4978048149
  O        24.9780738024       10.3162055877       15.8714360087
  H        25.3340662468       10.7058191560       14.9328067954
  H        23.5813863062       11.1961649808       19.5965001893
  O        23.8517062016       11.2402298118       20.5672239582
  H        24.1050765347       12.2874660583       20.8252260085
  H        23.7083283385       13.2274924078        9.2842149771
  O        24.4998653519       13.1697305925        9.9171201108
  H        24.7852981058       14.1550781054       10.0361121652
  H        24.5463074770       14.3034026017       13.4096967386
  O        24.9446463919       13.6171821477       14.0332270405
  H        25.2418150103       14.0848066810       14.9730892996
  H        25.0667304729       15.4637994952       16.6874305171
  O        25.6176479763       14.6814687926       16.1558245357
  H        26.3292751433       14.2808927711       16.7260966814
  H        23.2548891510       13.8746705880       21.6781216297
  O        24.1706523351       13.6069245687       21.2112655823
  H        24.5517017932       14.3961706369       20.7105585740
  H        23.8451391284       16.1116368910        9.3342970458
  O        24.7197019200       15.8742686814        9.8108262176
  H        25.1425381598       16.7481828222       10.0756877527
  H        23.2224355533       16.5621711715       12.7940083616
  O        23.8387501474       16.1969600497       13.5009636705
  H        24.5294674069       16.9760599086       13.7643346564
  H        24.2473197450       16.3725704703       18.4357650768
  O        24.2827878510       16.4283049631       17.3198595126
  H        24.4567184817       17.3847212632       17.0270951889
  H        23.3279817242       16.3862468469       20.2646635042
  O        24.2764292593       16.4116711083       19.8348042356
  H        24.6600509147       17.3726687393       20.0657010148
  H        24.1046050984       18.6467241636       11.1134036517
  O        24.9471681585       18.7838861980       10.5585546944
  H        25.6706419600       19.0676832745       11.1970759903
  H        25.3083590588       18.5605246293       15.0417649422
  O        25.5086525387       18.0202961425       14.1376992778
  H        26.4360725471       17.6471118116       14.1873327689
  H        24.5362140809       20.1177508035       16.3723721841
  O        25.1679989646       19.2225843562       16.3615675455
  H        26.0653335321       19.4868300995       16.7229313640
  H        24.9072457463       19.3424504387       19.2564383972
  O        24.9434197444       18.8977103624       20.1527738233
  H        24.4659842877       19.5427834497       20.8463212002
